

        *** GPGPU-Sim Simulator Version 3.2.2  [build 0] ***


GPGPU-Sim PTX: simulation mode 0 (can change with PTX_SIM_MODE_FUNC environment variable:
               1=functional simulation only, 0=detailed performance simulator)
GPGPU-Sim: Configuration options:

-network_mode                           1 # Interconnection network mode
-inter_config_file   config_fermi_islip.icnt # Interconnection network config file
-gpgpu_ptx_use_cuobjdump                    1 # Use cuobjdump to extract ptx and sass from binaries
-gpgpu_experimental_lib_support                    0 # Try to extract code from cuda libraries [Broken because of unknown cudaGetExportTable]
-gpgpu_ptx_convert_to_ptxplus                    0 # Convert SASS (native ISA) to ptxplus and run ptxplus
-gpgpu_ptx_force_max_capability                   20 # Force maximum compute capability
-gpgpu_ptx_inst_debug_to_file                    0 # Dump executed instructions' debug information to file
-gpgpu_ptx_inst_debug_file       inst_debug.txt # Executed instructions' debug output file
-gpgpu_ptx_inst_debug_thread_uid                    1 # Thread UID for executed instructions' debug output
-gpgpu_simd_model                       1 # 1 = post-dominator
-gpgpu_shader_core_pipeline              1536:32 # shader core pipeline config, i.e., {<nthread>:<warpsize>}
-gpgpu_tex_cache:l1  4:128:24,L:R:m:N:L,F:128:4,128:2 # per-shader L1 texture cache  (READ-ONLY) config  {<nsets>:<bsize>:<assoc>,<rep>:<wr>:<alloc>:<wr_alloc>,<mshr>:<N>:<merge>,<mq>:<rf>}
-gpgpu_const_cache:l1 64:64:2,L:R:f:N:L,A:2:32,4 # per-shader L1 constant memory cache  (READ-ONLY) config  {<nsets>:<bsize>:<assoc>,<rep>:<wr>:<alloc>:<wr_alloc>,<mshr>:<N>:<merge>,<mq>} 
-gpgpu_cache:il1     4:128:4,L:R:f:N:L,A:2:32,4 # shader L1 instruction cache config  {<nsets>:<bsize>:<assoc>,<rep>:<wr>:<alloc>:<wr_alloc>,<mshr>:<N>:<merge>,<mq>} 
-gpgpu_cache:dl1     32:128:4,L:L:m:N:H,A:32:8,8 # per-shader L1 data cache config  {<nsets>:<bsize>:<assoc>,<rep>:<wr>:<alloc>:<wr_alloc>,<mshr>:<N>:<merge>,<mq> | none}
-gpgpu_cache:dl1PrefL1                 none # per-shader L1 data cache config  {<nsets>:<bsize>:<assoc>,<rep>:<wr>:<alloc>:<wr_alloc>,<mshr>:<N>:<merge>,<mq> | none}
-gpgpu_cache:dl1PreShared                 none # per-shader L1 data cache config  {<nsets>:<bsize>:<assoc>,<rep>:<wr>:<alloc>:<wr_alloc>,<mshr>:<N>:<merge>,<mq> | none}
-gmem_skip_L1D                          0 # global memory access skip L1D cache (implements -Xptxas -dlcm=cg, default=no skip)
-gpgpu_perfect_mem                      0 # enable perfect memory mode (no cache miss)
-n_regfile_gating_group                    4 # group of lanes that should be read/written together)
-gpgpu_clock_gated_reg_file                    0 # enable clock gated reg file for power calculations
-gpgpu_clock_gated_lanes                    0 # enable clock gated lanes for power calculations
-gpgpu_shader_registers                32768 # Number of registers per shader core. Limits number of concurrent CTAs. (default 8192)
-gpgpu_shader_cta                       8 # Maximum number of concurrent CTAs in shader (default 8)
-gpgpu_num_cta_barriers                   16 # Maximum number of named barriers per CTA (default 16)
-gpgpu_n_clusters                      15 # number of processing clusters
-gpgpu_n_cores_per_cluster                    1 # number of simd cores per cluster
-gpgpu_n_cluster_ejection_buffer_size                    8 # number of packets in ejection buffer
-gpgpu_n_ldst_response_buffer_size                    2 # number of response packets in ld/st unit ejection buffer
-gpgpu_shmem_size                   16384 # Size of shared memory per shader core (default 16kB)
-gpgpu_shmem_size                   49152 # Size of shared memory per shader core (default 16kB)
-gpgpu_shmem_size_PrefL1                16384 # Size of shared memory per shader core (default 16kB)
-gpgpu_shmem_size_PrefShared                16384 # Size of shared memory per shader core (default 16kB)
-gpgpu_shmem_num_banks                   32 # Number of banks in the shared memory in each shader core (default 16)
-gpgpu_shmem_limited_broadcast                    0 # Limit shared memory to do one broadcast per cycle (default on)
-gpgpu_shmem_warp_parts                    1 # Number of portions a warp is divided into for shared memory bank conflict check 
-gpgpu_warpdistro_shader                   -1 # Specify which shader core to collect the warp size distribution from
-gpgpu_warp_issue_shader                    0 # Specify which shader core to collect the warp issue distribution from
-gpgpu_local_mem_map                    1 # Mapping from local memory space address to simulated GPU physical address space (default = enabled)
-gpgpu_num_reg_banks                   16 # Number of register banks (default = 8)
-gpgpu_reg_bank_use_warp_id                    0 # Use warp ID in mapping registers to banks (default = off)
-gpgpu_operand_collector_num_units_sp                    6 # number of collector units (default = 4)
-gpgpu_operand_collector_num_units_sfu                    8 # number of collector units (default = 4)
-gpgpu_operand_collector_num_units_mem                    2 # number of collector units (default = 2)
-gpgpu_operand_collector_num_units_gen                    0 # number of collector units (default = 0)
-gpgpu_operand_collector_num_in_ports_sp                    2 # number of collector unit in ports (default = 1)
-gpgpu_operand_collector_num_in_ports_sfu                    1 # number of collector unit in ports (default = 1)
-gpgpu_operand_collector_num_in_ports_mem                    1 # number of collector unit in ports (default = 1)
-gpgpu_operand_collector_num_in_ports_gen                    0 # number of collector unit in ports (default = 0)
-gpgpu_operand_collector_num_out_ports_sp                    2 # number of collector unit in ports (default = 1)
-gpgpu_operand_collector_num_out_ports_sfu                    1 # number of collector unit in ports (default = 1)
-gpgpu_operand_collector_num_out_ports_mem                    1 # number of collector unit in ports (default = 1)
-gpgpu_operand_collector_num_out_ports_gen                    0 # number of collector unit in ports (default = 0)
-gpgpu_coalesce_arch                   13 # Coalescing arch (default = 13, anything else is off for now)
-gpgpu_num_sched_per_core                    2 # Number of warp schedulers per core
-gpgpu_max_insn_issue_per_warp                    1 # Max number of instructions that can be issued per warp in one cycle by scheduler
-gpgpu_simt_core_sim_order                    1 # Select the simulation order of cores in a cluster (0=Fix, 1=Round-Robin)
-gpgpu_pipeline_widths        2,1,1,2,1,1,2 # Pipeline widths ID_OC_SP,ID_OC_SFU,ID_OC_MEM,OC_EX_SP,OC_EX_SFU,OC_EX_MEM,EX_WB
-gpgpu_num_sp_units                     2 # Number of SP units (default=1)
-gpgpu_num_sfu_units                    1 # Number of SF units (default=1)
-gpgpu_num_mem_units                    1 # Number if ldst units (default=1) WARNING: not hooked up to anything
-gpgpu_scheduler                      gto # Scheduler configuration: < lrr | gto | two_level_active > If two_level_active:<num_active_warps>:<inner_prioritization>:<outer_prioritization>For complete list of prioritization values see shader.h enum scheduler_prioritization_typeDefault: gto
-gpgpu_dram_scheduler                    1 # 0 = fifo, 1 = FR-FCFS (defaul)
-gpgpu_dram_partition_queues              8:8:8:8 # i2$:$2d:d2$:$2i
-l2_ideal                               0 # Use a ideal L2 cache that always hit
-gpgpu_cache:dl2     64:128:8,L:B:m:W:L,A:32:4,4:0,32 # unified banked L2 data cache config  {<nsets>:<bsize>:<assoc>,<rep>:<wr>:<alloc>:<wr_alloc>,<mshr>:<N>:<merge>,<mq>}
-gpgpu_cache:dl2_texture_only                    0 # L2 cache used for texture only
-gpgpu_n_mem                            6 # number of memory modules (e.g. memory controllers) in gpu
-gpgpu_n_sub_partition_per_mchannel                    2 # number of memory subpartition in each memory module
-gpgpu_n_mem_per_ctrlr                    2 # number of memory chips per memory controller
-gpgpu_memlatency_stat                   14 # track and display latency statistics 0x2 enables MC, 0x4 enables queue logs
-gpgpu_frfcfs_dram_sched_queue_size                   16 # 0 = unlimited (default); # entries per chip
-gpgpu_dram_return_queue_size                  116 # 0 = unlimited (default); # entries per chip
-gpgpu_dram_buswidth                    4 # default = 4 bytes (8 bytes per cycle at DDR)
-gpgpu_dram_burst_length                    8 # Burst length of each DRAM request (default = 4 data bus cycle)
-dram_data_command_freq_ratio                    4 # Frequency ratio between DRAM data bus and command bus (default = 2 times, i.e. DDR)
-gpgpu_dram_timing_opt nbk=16:CCD=2:RRD=6:RCD=12:RAS=28:RP=12:RC=40: CL=12:WL=4:CDLR=5:WR=12:nbkgrp=4:CCDL=3:RTPL=2 # DRAM timing parameters = {nbk:tCCD:tRRD:tRCD:tRAS:tRP:tRC:CL:WL:tCDLR:tWR:nbkgrp:tCCDL:tRTPL}
-rop_latency                          120 # ROP queue latency (default 85)
-dram_latency                         100 # DRAM latency (default 30)
-gpgpu_mem_addr_mapping dramid@8;00000000.00000000.00000000.00000000.0000RRRR.RRRRRRRR.BBBCCCCB.CCSSSSSS # mapping memory address to dram model {dramid@<start bit>;<memory address map>}
-gpgpu_mem_addr_test                    0 # run sweep test to check address mapping for aliased address
-gpgpu_mem_address_mask                    1 # 0 = old addressing mask, 1 = new addressing mask, 2 = new add. mask + flipped bank sel and chip sel bits
-gpuwattch_xml_file  gpuwattch_gtx480.xml # GPUWattch XML file
-power_simulation_enabled                    1 # Turn on power simulator (1=On, 0=Off)
-power_per_cycle_dump                    0 # Dump detailed power output each cycle
-power_trace_enabled                    0 # produce a file for the power trace (1=On, 0=Off)
-power_trace_zlevel                     6 # Compression level of the power trace output log (0=no comp, 9=highest)
-steady_power_levels_enabled                    0 # produce a file for the steady power levels (1=On, 0=Off)
-steady_state_definition                  8:4 # allowed deviation:number of samples
-gpgpu_max_cycle                        0 # terminates gpu simulation early (0 = no limit)
-gpgpu_max_insn                         0 # terminates gpu simulation early (0 = no limit)
-gpgpu_max_cta                          0 # terminates gpu simulation early (0 = no limit)
-gpgpu_runtime_stat                   500 # display runtime statistics such as dram utilization {<freq>:<flag>}
-liveness_message_freq                    1 # Minimum number of seconds between simulation liveness messages (0 = always print)
-gpgpu_flush_l1_cache                    0 # Flush L1 cache at the end of each kernel call
-gpgpu_flush_l2_cache                    0 # Flush L2 cache at the end of each kernel call
-gpgpu_deadlock_detect                    1 # Stop the simulation at deadlock (1=on (default), 0=off)
-gpgpu_ptx_instruction_classification                    0 # if enabled will classify ptx instruction types per kernel (Max 255 kernels now)
-gpgpu_ptx_sim_mode                     0 # Select between Performance (default) or Functional simulation (1)
-gpgpu_clock_domains 700.0:700.0:700.0:924.0 # Clock Domain Frequencies in MhZ {<Core Clock>:<ICNT Clock>:<L2 Clock>:<DRAM Clock>}
-gpgpu_max_concurrent_kernel                    8 # maximum kernels that can run concurrently on GPU
-gpgpu_cflog_interval                    0 # Interval between each snapshot in control flow logger
-visualizer_enabled                     0 # Turn on visualizer output (1=On, 0=Off)
-visualizer_outputfile                 NULL # Specifies the output log file for visualizer
-visualizer_zlevel                      6 # Compression level of the visualizer output log (0=no comp, 9=highest)
-trace_enabled                          0 # Turn on traces
-trace_components                    none # comma seperated list of traces to enable. Complete list found in trace_streams.tup. Default none
-trace_sampling_core                    0 # The core which is printed using CORE_DPRINTF. Default 0
-trace_sampling_memory_partition                   -1 # The memory partition which is printed using MEMPART_DPRINTF. Default -1 (i.e. all)
-enable_ptx_file_line_stats                    1 # Turn on PTX source line statistic profiling. (1 = On)
-ptx_line_stats_filename gpgpu_inst_stats.txt # Output file for PTX source line statistics.
-save_embedded_ptx                      0 # saves ptx files embedded in binary as <n>.ptx
-keep                                   0 # keep intermediate files created by GPGPU-Sim when interfacing with external programs
-gpgpu_ptx_save_converted_ptxplus                    0 # Saved converted ptxplus to a file
-ptx_opcode_latency_int         4,13,4,5,145 # Opcode latencies for integers <ADD,MAX,MUL,MAD,DIV>Default 1,1,19,25,145
-ptx_opcode_latency_fp          4,13,4,5,39 # Opcode latencies for single precision floating points <ADD,MAX,MUL,MAD,DIV>Default 1,1,1,1,30
-ptx_opcode_latency_dp         8,19,8,8,330 # Opcode latencies for double precision floating points <ADD,MAX,MUL,MAD,DIV>Default 8,8,8,8,335
-ptx_opcode_initiation_int            1,2,2,1,8 # Opcode initiation intervals for integers <ADD,MAX,MUL,MAD,DIV>Default 1,1,4,4,32
-ptx_opcode_initiation_fp            1,2,1,1,4 # Opcode initiation intervals for single precision floating points <ADD,MAX,MUL,MAD,DIV>Default 1,1,1,1,5
-ptx_opcode_initiation_dp         8,16,8,8,130 # Opcode initiation intervals for double precision floating points <ADD,MAX,MUL,MAD,DIV>Default 8,8,8,8,130
DRAM Timing Options:
nbk                                    16 # number of banks
CCD                                     2 # column to column delay
RRD                                     6 # minimal delay between activation of rows in different banks
RCD                                    12 # row to column delay
RAS                                    28 # time needed to activate row
RP                                     12 # time needed to precharge (deactivate) row
RC                                     40 # row cycle time
CDLR                                    5 # switching from write to read (changes tWTR)
WR                                     12 # last data-in to row precharge
CL                                     12 # CAS latency
WL                                      4 # Write latency
nbkgrp                                  4 # number of bank groups
CCDL                                    3 # column to column delay between accesses to different bank groups
RTPL                                    2 # read to precharge delay between accesses to different bank groups
Total number of memory sub partition = 12
addr_dec_mask[CHIP]  = 0000000000000000 	high:64 low:0
addr_dec_mask[BK]    = 000000000000e100 	high:16 low:8
addr_dec_mask[ROW]   = 000000000fff0000 	high:28 low:16
addr_dec_mask[COL]   = 0000000000001eff 	high:13 low:0
addr_dec_mask[BURST] = 000000000000003f 	high:6 low:0
sub_partition_id_mask = 0000000000000100
GPGPU-Sim uArch: clock freqs: 700000000.000000:700000000.000000:700000000.000000:924000000.000000
GPGPU-Sim uArch: clock periods: 0.00000000142857142857:0.00000000142857142857:0.00000000142857142857:0.00000000108225108225
*** Initializing Memory Statistics ***
GPGPU-Sim uArch: interconnect node map (shaderID+MemID to icntID)
GPGPU-Sim uArch: Memory nodes ID start from index: 15
GPGPU-Sim uArch:    0   1   2   3   4
GPGPU-Sim uArch:    5   6   7   8   9
GPGPU-Sim uArch:   10  11  12  13  14
GPGPU-Sim uArch:   15  16  17  18  19
GPGPU-Sim uArch:   20  21  22  23  24
GPGPU-Sim uArch:   25  26
GPGPU-Sim uArch: interconnect node reverse map (icntID to shaderID+MemID)
GPGPU-Sim uArch: Memory nodes start from ID: 15
GPGPU-Sim uArch:    0   1   2   3   4
GPGPU-Sim uArch:    5   6   7   8   9
GPGPU-Sim uArch:   10  11  12  13  14
GPGPU-Sim uArch:   15  16  17  18  19
GPGPU-Sim uArch:   20  21  22  23  24
GPGPU-Sim uArch:   25  26
8f2ed8592e972a7020afa6c02927fc9a  /root/Abhay/cudaReductionOpti/reduction
GPGPU-Sim uArch: performance model initialization complete.
GPGPU-Sim PTX: __cudaRegisterFatBinary, fat_cubin_handle = 1, filename=main.cu
self exe links to: /root/Abhay/cudaReductionOpti/reduction
Running md5sum using "md5sum /root/Abhay/cudaReductionOpti/reduction "
Running cuobjdump using "$CUDA_INSTALL_PATH/bin/cuobjdump -ptx -elf -sass /root/Abhay/cudaReductionOpti/reduction > _cuobjdump_complete_output_SLCzNS"
Parsing file _cuobjdump_complete_output_SLCzNS
######### cuobjdump parser ########
## Adding new section ELF
Adding arch: sm_10
Adding identifier: main.cu
## Adding new section PTX
Adding ptx filename: _cuobjdump_1.ptx
Adding arch: sm_10
Adding identifier: main.cu
## Adding new section ELF
Adding arch: sm_10
Adding identifier: support.cu
## Adding new section PTX
Adding ptx filename: _cuobjdump_2.ptx
Adding arch: sm_10
Adding identifier: support.cu
Done parsing!!!
GPGPU-Sim PTX: __cudaRegisterFunction _Z9reductionPfS_j : hostFun 0x0x400e40, fat_cubin_handle = 1
GPGPU-Sim PTX: allocating shared region for "__cuda___cuda_local_var_16314_35_non_const_partialSum20" from 0x0 to 0x1000 (shared memory space)
GPGPU-Sim PTX: instruction assembly for function '_Z9reductionPfS_j'...   done.
GPGPU-Sim PTX: finding reconvergence points for '_Z9reductionPfS_j'...
GPGPU-Sim PTX: Finding dominators for '_Z9reductionPfS_j'...
GPGPU-Sim PTX: Finding immediate dominators for '_Z9reductionPfS_j'...
GPGPU-Sim PTX: Finding postdominators for '_Z9reductionPfS_j'...
GPGPU-Sim PTX: Finding immediate postdominators for '_Z9reductionPfS_j'...
GPGPU-Sim PTX: pre-decoding instructions for '_Z9reductionPfS_j'...
GPGPU-Sim PTX: reconvergence points for _Z9reductionPfS_j...
GPGPU-Sim PTX:  1 (potential) branch divergence @  PC=0x058 (_1.ptx:72) @%p1 bra $Lt_0_3842;
GPGPU-Sim PTX:    immediate post dominator      @  PC=0x0b0 (_1.ptx:87) add.u32 %r8, %r2, %r1;
GPGPU-Sim PTX:  2 (potential) branch divergence @  PC=0x098 (_1.ptx:81) bra.uni $Lt_0_3586;
GPGPU-Sim PTX:    immediate post dominator      @  PC=0x0b0 (_1.ptx:87) add.u32 %r8, %r2, %r1;
GPGPU-Sim PTX:  3 (potential) branch divergence @  PC=0x0e8 (_1.ptx:96) @%p2 bra $Lt_0_4354;
GPGPU-Sim PTX:    immediate post dominator      @  PC=0x148 (_1.ptx:113) mov.s32 %r12, %r2;
GPGPU-Sim PTX:  4 (potential) branch divergence @  PC=0x130 (_1.ptx:106) bra.uni $Lt_0_4098;
GPGPU-Sim PTX:    immediate post dominator      @  PC=0x148 (_1.ptx:113) mov.s32 %r12, %r2;
GPGPU-Sim PTX:  5 (potential) branch divergence @  PC=0x160 (_1.ptx:116) @%p3 bra $Lt_0_4610;
GPGPU-Sim PTX:    immediate post dominator      @  PC=0x1e0 (_1.ptx:139) bar.sync 0;
GPGPU-Sim PTX:  6 (potential) branch divergence @  PC=0x178 (_1.ptx:121) @%p4 bra $Lt_0_5378;
GPGPU-Sim PTX:    immediate post dominator      @  PC=0x1c0 (_1.ptx:133) shr.u32 %r12, %r12, 1;
GPGPU-Sim PTX:  7 (potential) branch divergence @  PC=0x1d8 (_1.ptx:136) @%p5 bra $Lt_0_5122;
GPGPU-Sim PTX:    immediate post dominator      @  PC=0x1e0 (_1.ptx:139) bar.sync 0;
GPGPU-Sim PTX: ... end of reconvergence points for _Z9reductionPfS_j
GPGPU-Sim PTX: ... done pre-decoding instructions for '_Z9reductionPfS_j'.
GPGPU-Sim PTX: finished parsing EMBEDDED .ptx file _1.ptx
Adding _cuobjdump_1.ptx with cubin handle 1
GPGPU-Sim PTX: extracting embedded .ptx to temporary file "_ptx_Y1cbU6"
Running: cat _ptx_Y1cbU6 | sed 's/.version 1.5/.version 1.4/' | sed 's/, texmode_independent//' | sed 's/\(\.extern \.const\[1\] .b8 \w\+\)\[\]/\1\[1\]/' | sed 's/const\[.\]/const\[0\]/g' > _ptx2_CKLN0k
GPGPU-Sim PTX: generating ptxinfo using "$CUDA_INSTALL_PATH/bin/ptxas --gpu-name=sm_20 -v _ptx2_CKLN0k --output-file  /dev/null 2> _ptx_Y1cbU6info"
GPGPU-Sim PTX: Kernel '_Z9reductionPfS_j' : regs=10, lmem=0, smem=4096, cmem=52
GPGPU-Sim PTX: removing ptxinfo using "rm -f _ptx_Y1cbU6 _ptx2_CKLN0k _ptx_Y1cbU6info"
GPGPU-Sim PTX: loading globals with explicit initializers... 
GPGPU-Sim PTX: finished loading globals (0 bytes total).
GPGPU-Sim PTX: loading constants with explicit initializers...  done.
GPGPU-Sim PTX: __cudaRegisterFatBinary, fat_cubin_handle = 2, filename=support.cu

Setting up the problem...0.025932 s
    Input size = 1000000
Allocating device variables...0.000010 s
Copying data from host to device...0.107591 s
Launching kernel...
GPGPU-Sim PTX: cudaLaunch for 0x0x400e40 (mode=performance simulation) on stream 0
GPGPU-Sim PTX: pushing kernel '_Z9reductionPfS_j' to stream 0, gridDim= (977,1,1) blockDim = (512,1,1) 
kernel '_Z9reductionPfS_j' transfer to GPU hardware scheduler
GPGPU-Sim uArch: Shader 1 bind to kernel 1 '_Z9reductionPfS_j'
GPGPU-Sim uArch: CTA/core = 3, limited by: threads
GPGPU-Sim uArch: core:  1, cta: 0 initialized @(1,0)
GPGPU-Sim uArch: Shader 2 bind to kernel 1 '_Z9reductionPfS_j'
GPGPU-Sim uArch: core:  2, cta: 0 initialized @(1,0)
GPGPU-Sim uArch: Shader 3 bind to kernel 1 '_Z9reductionPfS_j'
GPGPU-Sim uArch: core:  3, cta: 0 initialized @(1,0)
GPGPU-Sim uArch: Shader 4 bind to kernel 1 '_Z9reductionPfS_j'
GPGPU-Sim uArch: core:  4, cta: 0 initialized @(1,0)
GPGPU-Sim uArch: Shader 5 bind to kernel 1 '_Z9reductionPfS_j'
GPGPU-Sim uArch: core:  5, cta: 0 initialized @(1,0)
GPGPU-Sim uArch: Shader 6 bind to kernel 1 '_Z9reductionPfS_j'
GPGPU-Sim uArch: core:  6, cta: 0 initialized @(1,0)
GPGPU-Sim uArch: Shader 7 bind to kernel 1 '_Z9reductionPfS_j'
GPGPU-Sim uArch: core:  7, cta: 0 initialized @(1,0)
GPGPU-Sim uArch: Shader 8 bind to kernel 1 '_Z9reductionPfS_j'
GPGPU-Sim uArch: core:  8, cta: 0 initialized @(1,0)
GPGPU-Sim uArch: Shader 9 bind to kernel 1 '_Z9reductionPfS_j'
GPGPU-Sim uArch: core:  9, cta: 0 initialized @(1,0)
GPGPU-Sim uArch: Shader 10 bind to kernel 1 '_Z9reductionPfS_j'
GPGPU-Sim uArch: core: 10, cta: 0 initialized @(1,0)
GPGPU-Sim uArch: Shader 11 bind to kernel 1 '_Z9reductionPfS_j'
GPGPU-Sim uArch: core: 11, cta: 0 initialized @(1,0)
GPGPU-Sim uArch: Shader 12 bind to kernel 1 '_Z9reductionPfS_j'
GPGPU-Sim uArch: core: 12, cta: 0 initialized @(1,0)
GPGPU-Sim uArch: Shader 13 bind to kernel 1 '_Z9reductionPfS_j'
GPGPU-Sim uArch: core: 13, cta: 0 initialized @(1,0)
GPGPU-Sim uArch: Shader 14 bind to kernel 1 '_Z9reductionPfS_j'
GPGPU-Sim uArch: core: 14, cta: 0 initialized @(1,0)
GPGPU-Sim uArch: Shader 0 bind to kernel 1 '_Z9reductionPfS_j'
GPGPU-Sim uArch: core:  0, cta: 0 initialized @(1,0)
GPGPU-Sim uArch: core:  1, cta: 1 initialized @(2,0)
GPGPU-Sim uArch: core:  2, cta: 1 initialized @(2,0)
GPGPU-Sim uArch: core:  3, cta: 1 initialized @(2,0)
GPGPU-Sim uArch: core:  4, cta: 1 initialized @(2,0)
GPGPU-Sim uArch: core:  5, cta: 1 initialized @(2,0)
GPGPU-Sim uArch: core:  6, cta: 1 initialized @(2,0)
GPGPU-Sim uArch: core:  7, cta: 1 initialized @(2,0)
GPGPU-Sim uArch: core:  8, cta: 1 initialized @(2,0)
GPGPU-Sim uArch: core:  9, cta: 1 initialized @(2,0)
GPGPU-Sim uArch: core: 10, cta: 1 initialized @(2,0)
GPGPU-Sim uArch: core: 11, cta: 1 initialized @(2,0)
GPGPU-Sim uArch: core: 12, cta: 1 initialized @(2,0)
GPGPU-Sim uArch: core: 13, cta: 1 initialized @(2,0)
GPGPU-Sim uArch: core: 14, cta: 1 initialized @(2,0)
GPGPU-Sim uArch: core:  0, cta: 1 initialized @(2,0)
GPGPU-Sim uArch: core:  1, cta: 2 initialized @(3,0)
GPGPU-Sim uArch: core:  2, cta: 2 initialized @(3,0)
GPGPU-Sim uArch: core:  3, cta: 2 initialized @(3,0)
GPGPU-Sim uArch: core:  4, cta: 2 initialized @(3,0)
GPGPU-Sim uArch: core:  5, cta: 2 initialized @(3,0)
GPGPU-Sim uArch: core:  6, cta: 2 initialized @(3,0)
GPGPU-Sim uArch: core:  7, cta: 2 initialized @(3,0)
GPGPU-Sim uArch: core:  8, cta: 2 initialized @(3,0)
GPGPU-Sim uArch: core:  9, cta: 2 initialized @(3,0)
GPGPU-Sim uArch: core: 10, cta: 2 initialized @(3,0)
GPGPU-Sim uArch: core: 11, cta: 2 initialized @(3,0)
GPGPU-Sim uArch: core: 12, cta: 2 initialized @(3,0)
GPGPU-Sim uArch: core: 13, cta: 2 initialized @(3,0)
GPGPU-Sim uArch: core: 14, cta: 2 initialized @(3,0)
GPGPU-Sim uArch: core:  0, cta: 2 initialized @(3,0)
GPGPU-Sim PTX: 100000 instructions simulated : ctaid=(39,0,0) tid=(479,0,0)
GPGPU-Sim uArch: cycles simulated: 500  inst.: 119424 (ipc=238.8) sim_rate=119424 (inst/sec) elapsed = 0:0:00:01 / Wed Jan 30 06:01:26 2019
GPGPU-Sim PTX: 200000 instructions simulated : ctaid=(36,0,0) tid=(255,0,0)
GPGPU-Sim PTX: 300000 instructions simulated : ctaid=(25,0,0) tid=(255,0,0)
GPGPU-Sim PTX: 400000 instructions simulated : ctaid=(12,0,0) tid=(287,0,0)
GPGPU-Sim PTX: 500000 instructions simulated : ctaid=(5,0,0) tid=(191,0,0)
GPGPU-Sim PTX: 600000 instructions simulated : ctaid=(30,0,0) tid=(287,0,0)
GPGPU-Sim PTX: 700000 instructions simulated : ctaid=(20,0,0) tid=(383,0,0)
GPGPU-Sim uArch: cycles simulated: 2000  inst.: 649568 (ipc=324.8) sim_rate=324784 (inst/sec) elapsed = 0:0:00:02 / Wed Jan 30 06:01:28 2019
GPGPU-Sim PTX: 800000 instructions simulated : ctaid=(31,0,0) tid=(95,0,0)
GPGPU-Sim PTX: 900000 instructions simulated : ctaid=(8,0,0) tid=(351,0,0)
GPGPU-Sim PTX: 1000000 instructions simulated : ctaid=(0,0,0) tid=(127,0,0)
GPGPU-Sim PTX: 1100000 instructions simulated : ctaid=(13,0,0) tid=(415,0,0)
GPGPU-Sim uArch: cycles simulated: 3000  inst.: 1048352 (ipc=349.5) sim_rate=349450 (inst/sec) elapsed = 0:0:00:03 / Wed Jan 30 06:01:29 2019
GPGPU-Sim PTX: 1200000 instructions simulated : ctaid=(29,0,0) tid=(415,0,0)
GPGPU-Sim PTX: 1300000 instructions simulated : ctaid=(35,0,0) tid=(479,0,0)
GPGPU-Sim PTX: 1400000 instructions simulated : ctaid=(30,0,0) tid=(479,0,0)
GPGPU-Sim PTX: 1500000 instructions simulated : ctaid=(40,0,0) tid=(127,0,0)
GPGPU-Sim PTX: 1600000 instructions simulated : ctaid=(27,0,0) tid=(415,0,0)
GPGPU-Sim PTX: 1700000 instructions simulated : ctaid=(5,0,0) tid=(31,0,0)
GPGPU-Sim PTX: 1800000 instructions simulated : ctaid=(19,0,0) tid=(431,0,0)
GPGPU-Sim PTX: 1900000 instructions simulated : ctaid=(40,0,0) tid=(95,0,0)
GPGPU-Sim uArch: cycles simulated: 4000  inst.: 1816240 (ipc=454.1) sim_rate=454060 (inst/sec) elapsed = 0:0:00:04 / Wed Jan 30 06:01:30 2019
GPGPU-Sim PTX: 2000000 instructions simulated : ctaid=(4,0,0) tid=(159,0,0)
GPGPU-Sim PTX: 2100000 instructions simulated : ctaid=(4,0,0) tid=(47,0,0)
GPGPU-Sim PTX: 2200000 instructions simulated : ctaid=(24,0,0) tid=(31,0,0)
GPGPU-Sim PTX: 2300000 instructions simulated : ctaid=(8,0,0) tid=(315,0,0)
GPGPU-Sim PTX: 2400000 instructions simulated : ctaid=(35,0,0) tid=(229,0,0)
GPGPU-Sim PTX: 2500000 instructions simulated : ctaid=(13,0,0) tid=(446,0,0)
GPGPU-Sim PTX: 2600000 instructions simulated : ctaid=(1,0,0) tid=(278,0,0)
GPGPU-Sim uArch: cycles simulated: 5000  inst.: 2491164 (ipc=498.2) sim_rate=498232 (inst/sec) elapsed = 0:0:00:05 / Wed Jan 30 06:01:31 2019
GPGPU-Sim PTX: 2700000 instructions simulated : ctaid=(30,0,0) tid=(259,0,0)
GPGPU-Sim PTX: 2800000 instructions simulated : ctaid=(12,0,0) tid=(353,0,0)
GPGPU-Sim PTX: 2900000 instructions simulated : ctaid=(18,0,0) tid=(253,0,0)
GPGPU-Sim PTX: 3000000 instructions simulated : ctaid=(2,0,0) tid=(300,0,0)
GPGPU-Sim uArch: Shader 2 finished CTA #0 (5728,0), 2 CTAs running
GPGPU-Sim uArch: core:  2, cta: 0 initialized @(5729,0)
GPGPU-Sim uArch: Shader 7 finished CTA #0 (5800,0), 2 CTAs running
GPGPU-Sim uArch: core:  7, cta: 0 initialized @(5801,0)
GPGPU-Sim uArch: Shader 1 finished CTA #0 (5818,0), 2 CTAs running
GPGPU-Sim uArch: core:  1, cta: 0 initialized @(5819,0)
GPGPU-Sim uArch: Shader 4 finished CTA #0 (5827,0), 2 CTAs running
GPGPU-Sim uArch: core:  4, cta: 0 initialized @(5828,0)
GPGPU-Sim PTX: 3100000 instructions simulated : ctaid=(47,0,0) tid=(461,0,0)
GPGPU-Sim uArch: Shader 0 finished CTA #0 (6172,0), 2 CTAs running
GPGPU-Sim uArch: core:  0, cta: 0 initialized @(6173,0)
GPGPU-Sim uArch: Shader 6 finished CTA #0 (6190,0), 2 CTAs running
GPGPU-Sim uArch: core:  6, cta: 0 initialized @(6191,0)
GPGPU-Sim uArch: Shader 2 finished CTA #1 (6358,0), 2 CTAs running
GPGPU-Sim uArch: core:  2, cta: 1 initialized @(6359,0)
GPGPU-Sim uArch: Shader 14 finished CTA #0 (6394,0), 2 CTAs running
GPGPU-Sim uArch: core: 14, cta: 0 initialized @(6395,0)
GPGPU-Sim uArch: Shader 5 finished CTA #0 (6412,0), 2 CTAs running
GPGPU-Sim uArch: core:  5, cta: 0 initialized @(6413,0)
GPGPU-Sim uArch: Shader 8 finished CTA #0 (6466,0), 2 CTAs running
GPGPU-Sim uArch: core:  8, cta: 0 initialized @(6467,0)
GPGPU-Sim uArch: Shader 9 finished CTA #0 (6469,0), 2 CTAs running
GPGPU-Sim uArch: core:  9, cta: 0 initialized @(6470,0)
GPGPU-Sim uArch: Shader 11 finished CTA #0 (6475,0), 2 CTAs running
GPGPU-Sim uArch: core: 11, cta: 0 initialized @(6476,0)
GPGPU-Sim uArch: Shader 3 finished CTA #0 (6496,0), 2 CTAs running
GPGPU-Sim uArch: core:  3, cta: 0 initialized @(6497,0)
GPGPU-Sim uArch: cycles simulated: 6500  inst.: 3005893 (ipc=462.4) sim_rate=500982 (inst/sec) elapsed = 0:0:00:06 / Wed Jan 30 06:01:32 2019
GPGPU-Sim uArch: Shader 7 finished CTA #1 (6508,0), 2 CTAs running
GPGPU-Sim uArch: core:  7, cta: 1 initialized @(6509,0)
GPGPU-Sim uArch: Shader 1 finished CTA #1 (6535,0), 2 CTAs running
GPGPU-Sim uArch: core:  1, cta: 1 initialized @(6536,0)
GPGPU-Sim uArch: Shader 4 finished CTA #1 (6544,0), 2 CTAs running
GPGPU-Sim uArch: core:  4, cta: 1 initialized @(6545,0)
GPGPU-Sim uArch: Shader 10 finished CTA #0 (6607,0), 2 CTAs running
GPGPU-Sim uArch: core: 10, cta: 0 initialized @(6608,0)
GPGPU-Sim uArch: Shader 13 finished CTA #0 (6661,0), 2 CTAs running
GPGPU-Sim uArch: core: 13, cta: 0 initialized @(6662,0)
GPGPU-Sim PTX: 3200000 instructions simulated : ctaid=(34,0,0) tid=(295,0,0)
GPGPU-Sim uArch: Shader 0 finished CTA #1 (6892,0), 2 CTAs running
GPGPU-Sim uArch: core:  0, cta: 1 initialized @(6893,0)
GPGPU-Sim uArch: Shader 6 finished CTA #1 (6910,0), 2 CTAs running
GPGPU-Sim uArch: core:  6, cta: 1 initialized @(6911,0)
GPGPU-Sim uArch: Shader 5 finished CTA #1 (7086,0), 2 CTAs running
GPGPU-Sim uArch: core:  5, cta: 1 initialized @(7087,0)
GPGPU-Sim uArch: Shader 9 finished CTA #1 (7098,0), 2 CTAs running
GPGPU-Sim uArch: core:  9, cta: 1 initialized @(7099,0)
GPGPU-Sim uArch: Shader 11 finished CTA #1 (7105,0), 2 CTAs running
GPGPU-Sim uArch: core: 11, cta: 1 initialized @(7106,0)
GPGPU-Sim uArch: Shader 14 finished CTA #1 (7113,0), 2 CTAs running
GPGPU-Sim uArch: core: 14, cta: 1 initialized @(7114,0)
GPGPU-Sim uArch: Shader 2 finished CTA #2 (7122,0), 2 CTAs running
GPGPU-Sim uArch: core:  2, cta: 2 initialized @(7123,0)
GPGPU-Sim uArch: Shader 3 finished CTA #1 (7127,0), 2 CTAs running
GPGPU-Sim uArch: core:  3, cta: 1 initialized @(7128,0)
GPGPU-Sim PTX: 3300000 instructions simulated : ctaid=(70,0,0) tid=(7,0,0)
GPGPU-Sim uArch: Shader 7 finished CTA #2 (7230,0), 2 CTAs running
GPGPU-Sim uArch: core:  7, cta: 2 initialized @(7231,0)
GPGPU-Sim uArch: Shader 1 finished CTA #2 (7300,0), 2 CTAs running
GPGPU-Sim uArch: core:  1, cta: 2 initialized @(7301,0)
GPGPU-Sim uArch: Shader 4 finished CTA #2 (7304,0), 2 CTAs running
GPGPU-Sim uArch: core:  4, cta: 2 initialized @(7305,0)
GPGPU-Sim uArch: Shader 10 finished CTA #1 (7388,0), 2 CTAs running
GPGPU-Sim uArch: core: 10, cta: 1 initialized @(7389,0)
GPGPU-Sim uArch: Shader 12 finished CTA #0 (7392,0), 2 CTAs running
GPGPU-Sim uArch: core: 12, cta: 0 initialized @(7393,0)
GPGPU-Sim uArch: Shader 13 finished CTA #1 (7432,0), 2 CTAs running
GPGPU-Sim uArch: core: 13, cta: 1 initialized @(7433,0)
GPGPU-Sim PTX: 3400000 instructions simulated : ctaid=(74,0,0) tid=(263,0,0)
GPGPU-Sim uArch: cycles simulated: 7500  inst.: 3232933 (ipc=431.1) sim_rate=461847 (inst/sec) elapsed = 0:0:00:07 / Wed Jan 30 06:01:33 2019
GPGPU-Sim uArch: Shader 8 finished CTA #1 (7560,0), 2 CTAs running
GPGPU-Sim uArch: core:  8, cta: 1 initialized @(7561,0)
GPGPU-Sim uArch: Shader 0 finished CTA #2 (7598,0), 2 CTAs running
GPGPU-Sim uArch: core:  0, cta: 2 initialized @(7599,0)
GPGPU-Sim uArch: Shader 6 finished CTA #2 (7645,0), 2 CTAs running
GPGPU-Sim uArch: core:  6, cta: 2 initialized @(7646,0)
GPGPU-Sim uArch: Shader 12 finished CTA #1 (7716,0), 2 CTAs running
GPGPU-Sim uArch: core: 12, cta: 1 initialized @(7717,0)
GPGPU-Sim PTX: 3500000 instructions simulated : ctaid=(48,0,0) tid=(423,0,0)
GPGPU-Sim uArch: Shader 5 finished CTA #2 (7750,0), 2 CTAs running
GPGPU-Sim uArch: core:  5, cta: 2 initialized @(7751,0)
GPGPU-Sim uArch: Shader 9 finished CTA #2 (7754,0), 2 CTAs running
GPGPU-Sim uArch: core:  9, cta: 2 initialized @(7755,0)
GPGPU-Sim uArch: Shader 11 finished CTA #2 (7766,0), 2 CTAs running
GPGPU-Sim uArch: core: 11, cta: 2 initialized @(7767,0)
GPGPU-Sim uArch: Shader 14 finished CTA #2 (7772,0), 2 CTAs running
GPGPU-Sim uArch: core: 14, cta: 2 initialized @(7773,0)
GPGPU-Sim uArch: Shader 3 finished CTA #2 (7846,0), 2 CTAs running
GPGPU-Sim uArch: core:  3, cta: 2 initialized @(7847,0)
GPGPU-Sim uArch: Shader 8 finished CTA #2 (7904,0), 2 CTAs running
GPGPU-Sim uArch: core:  8, cta: 2 initialized @(7905,0)
GPGPU-Sim uArch: Shader 12 finished CTA #2 (7908,0), 2 CTAs running
GPGPU-Sim uArch: core: 12, cta: 2 initialized @(7909,0)
GPGPU-Sim PTX: 3600000 instructions simulated : ctaid=(83,0,0) tid=(231,0,0)
GPGPU-Sim uArch: Shader 13 finished CTA #2 (7959,0), 2 CTAs running
GPGPU-Sim uArch: core: 13, cta: 2 initialized @(7960,0)
GPGPU-Sim uArch: Shader 10 finished CTA #2 (7971,0), 2 CTAs running
GPGPU-Sim uArch: core: 10, cta: 2 initialized @(7972,0)
GPGPU-Sim PTX: 3700000 instructions simulated : ctaid=(87,0,0) tid=(135,0,0)
GPGPU-Sim PTX: 3800000 instructions simulated : ctaid=(72,0,0) tid=(391,0,0)
GPGPU-Sim PTX: 3900000 instructions simulated : ctaid=(45,0,0) tid=(167,0,0)
GPGPU-Sim PTX: 4000000 instructions simulated : ctaid=(49,0,0) tid=(135,0,0)
GPGPU-Sim uArch: cycles simulated: 8500  inst.: 3790565 (ipc=445.9) sim_rate=473820 (inst/sec) elapsed = 0:0:00:08 / Wed Jan 30 06:01:34 2019
GPGPU-Sim PTX: 4100000 instructions simulated : ctaid=(70,0,0) tid=(455,0,0)
GPGPU-Sim PTX: 4200000 instructions simulated : ctaid=(47,0,0) tid=(455,0,0)
GPGPU-Sim PTX: 4300000 instructions simulated : ctaid=(86,0,0) tid=(279,0,0)
GPGPU-Sim uArch: cycles simulated: 9000  inst.: 4165461 (ipc=462.8) sim_rate=462829 (inst/sec) elapsed = 0:0:00:09 / Wed Jan 30 06:01:35 2019
GPGPU-Sim PTX: 4400000 instructions simulated : ctaid=(77,0,0) tid=(7,0,0)
GPGPU-Sim PTX: 4500000 instructions simulated : ctaid=(65,0,0) tid=(447,0,0)
GPGPU-Sim PTX: 4600000 instructions simulated : ctaid=(70,0,0) tid=(215,0,0)
GPGPU-Sim PTX: 4700000 instructions simulated : ctaid=(48,0,0) tid=(259,0,0)
GPGPU-Sim PTX: 4800000 instructions simulated : ctaid=(81,0,0) tid=(415,0,0)
GPGPU-Sim PTX: 4900000 instructions simulated : ctaid=(67,0,0) tid=(365,0,0)
GPGPU-Sim PTX: 5000000 instructions simulated : ctaid=(59,0,0) tid=(139,0,0)
GPGPU-Sim PTX: 5100000 instructions simulated : ctaid=(66,0,0) tid=(157,0,0)
GPGPU-Sim uArch: cycles simulated: 10000  inst.: 4901464 (ipc=490.1) sim_rate=490146 (inst/sec) elapsed = 0:0:00:10 / Wed Jan 30 06:01:36 2019
GPGPU-Sim PTX: 5200000 instructions simulated : ctaid=(84,0,0) tid=(315,0,0)
GPGPU-Sim PTX: 5300000 instructions simulated : ctaid=(68,0,0) tid=(5,0,0)
GPGPU-Sim uArch: Shader 2 finished CTA #0 (10324,0), 2 CTAs running
GPGPU-Sim uArch: core:  2, cta: 0 initialized @(10325,0)
GPGPU-Sim PTX: 5400000 instructions simulated : ctaid=(85,0,0) tid=(109,0,0)
GPGPU-Sim PTX: 5500000 instructions simulated : ctaid=(79,0,0) tid=(314,0,0)
GPGPU-Sim PTX: 5600000 instructions simulated : ctaid=(54,0,0) tid=(8,0,0)
GPGPU-Sim uArch: Shader 7 finished CTA #0 (10639,0), 2 CTAs running
GPGPU-Sim uArch: core:  7, cta: 0 initialized @(10640,0)
GPGPU-Sim PTX: 5700000 instructions simulated : ctaid=(57,0,0) tid=(262,0,0)
GPGPU-Sim uArch: Shader 4 finished CTA #0 (10790,0), 2 CTAs running
GPGPU-Sim uArch: core:  4, cta: 0 initialized @(10791,0)
GPGPU-Sim uArch: Shader 2 finished CTA #1 (10870,0), 2 CTAs running
GPGPU-Sim uArch: core:  2, cta: 1 initialized @(10871,0)
GPGPU-Sim uArch: Shader 0 finished CTA #0 (10892,0), 2 CTAs running
GPGPU-Sim uArch: core:  0, cta: 0 initialized @(10893,0)
GPGPU-Sim PTX: 5800000 instructions simulated : ctaid=(84,0,0) tid=(355,0,0)
GPGPU-Sim uArch: Shader 1 finished CTA #0 (10937,0), 2 CTAs running
GPGPU-Sim uArch: core:  1, cta: 0 initialized @(10938,0)
GPGPU-Sim uArch: cycles simulated: 11000  inst.: 5602417 (ipc=509.3) sim_rate=509310 (inst/sec) elapsed = 0:0:00:11 / Wed Jan 30 06:01:37 2019
GPGPU-Sim PTX: 5900000 instructions simulated : ctaid=(86,0,0) tid=(111,0,0)
GPGPU-Sim uArch: Shader 6 finished CTA #0 (11076,0), 2 CTAs running
GPGPU-Sim uArch: core:  6, cta: 0 initialized @(11077,0)
GPGPU-Sim PTX: 6000000 instructions simulated : ctaid=(81,0,0) tid=(441,0,0)
GPGPU-Sim uArch: Shader 4 finished CTA #1 (11303,0), 2 CTAs running
GPGPU-Sim uArch: core:  4, cta: 1 initialized @(11304,0)
GPGPU-Sim PTX: 6100000 instructions simulated : ctaid=(78,0,0) tid=(19,0,0)
GPGPU-Sim uArch: Shader 12 finished CTA #0 (11378,0), 2 CTAs running
GPGPU-Sim uArch: core: 12, cta: 0 initialized @(11379,0)
GPGPU-Sim uArch: Shader 6 finished CTA #1 (11388,0), 2 CTAs running
GPGPU-Sim uArch: core:  6, cta: 1 initialized @(11389,0)
GPGPU-Sim uArch: Shader 1 finished CTA #1 (11405,0), 2 CTAs running
GPGPU-Sim uArch: core:  1, cta: 1 initialized @(11406,0)
GPGPU-Sim uArch: Shader 8 finished CTA #0 (11426,0), 2 CTAs running
GPGPU-Sim uArch: core:  8, cta: 0 initialized @(11427,0)
GPGPU-Sim uArch: cycles simulated: 11500  inst.: 5896699 (ipc=512.8) sim_rate=491391 (inst/sec) elapsed = 0:0:00:12 / Wed Jan 30 06:01:38 2019
GPGPU-Sim PTX: 6200000 instructions simulated : ctaid=(93,0,0) tid=(333,0,0)
GPGPU-Sim uArch: Shader 9 finished CTA #0 (11546,0), 2 CTAs running
GPGPU-Sim uArch: core:  9, cta: 0 initialized @(11547,0)
GPGPU-Sim uArch: Shader 11 finished CTA #0 (11577,0), 2 CTAs running
GPGPU-Sim uArch: Shader 12 finished CTA #1 (11577,0), 2 CTAs running
GPGPU-Sim uArch: core: 11, cta: 0 initialized @(11578,0)
GPGPU-Sim uArch: core: 12, cta: 1 initialized @(11578,0)
GPGPU-Sim uArch: Shader 14 finished CTA #0 (11585,0), 2 CTAs running
GPGPU-Sim uArch: core: 14, cta: 0 initialized @(11586,0)
GPGPU-Sim uArch: Shader 5 finished CTA #0 (11600,0), 2 CTAs running
GPGPU-Sim uArch: core:  5, cta: 0 initialized @(11601,0)
GPGPU-Sim uArch: Shader 7 finished CTA #1 (11629,0), 2 CTAs running
GPGPU-Sim uArch: core:  7, cta: 1 initialized @(11630,0)
GPGPU-Sim uArch: Shader 13 finished CTA #0 (11653,0), 2 CTAs running
GPGPU-Sim uArch: core: 13, cta: 0 initialized @(11654,0)
GPGPU-Sim uArch: Shader 0 finished CTA #1 (11662,0), 2 CTAs running
GPGPU-Sim uArch: core:  0, cta: 1 initialized @(11663,0)
GPGPU-Sim uArch: Shader 3 finished CTA #0 (11664,0), 2 CTAs running
GPGPU-Sim uArch: core:  3, cta: 0 initialized @(11665,0)
GPGPU-Sim uArch: Shader 10 finished CTA #0 (11673,0), 2 CTAs running
GPGPU-Sim uArch: core: 10, cta: 0 initialized @(11674,0)
GPGPU-Sim PTX: 6300000 instructions simulated : ctaid=(87,0,0) tid=(276,0,0)
GPGPU-Sim uArch: Shader 8 finished CTA #1 (11825,0), 2 CTAs running
GPGPU-Sim uArch: core:  8, cta: 1 initialized @(11826,0)
GPGPU-Sim PTX: 6400000 instructions simulated : ctaid=(111,0,0) tid=(419,0,0)
GPGPU-Sim uArch: Shader 1 finished CTA #2 (11980,0), 2 CTAs running
GPGPU-Sim uArch: core:  1, cta: 2 initialized @(11981,0)
GPGPU-Sim PTX: 6500000 instructions simulated : ctaid=(88,0,0) tid=(278,0,0)
GPGPU-Sim uArch: Shader 2 finished CTA #2 (12169,0), 2 CTAs running
GPGPU-Sim uArch: core:  2, cta: 2 initialized @(12170,0)
GPGPU-Sim uArch: Shader 9 finished CTA #1 (12210,0), 2 CTAs running
GPGPU-Sim uArch: core:  9, cta: 1 initialized @(12211,0)
GPGPU-Sim uArch: Shader 4 finished CTA #2 (12231,0), 2 CTAs running
GPGPU-Sim uArch: core:  4, cta: 2 initialized @(12232,0)
GPGPU-Sim uArch: Shader 11 finished CTA #1 (12273,0), 2 CTAs running
GPGPU-Sim uArch: core: 11, cta: 1 initialized @(12274,0)
GPGPU-Sim uArch: Shader 14 finished CTA #1 (12279,0), 2 CTAs running
GPGPU-Sim uArch: core: 14, cta: 1 initialized @(12280,0)
GPGPU-Sim uArch: Shader 5 finished CTA #1 (12285,0), 2 CTAs running
GPGPU-Sim uArch: core:  5, cta: 1 initialized @(12286,0)
GPGPU-Sim uArch: Shader 13 finished CTA #1 (12356,0), 2 CTAs running
GPGPU-Sim uArch: core: 13, cta: 1 initialized @(12357,0)
GPGPU-Sim uArch: Shader 3 finished CTA #1 (12362,0), 2 CTAs running
GPGPU-Sim uArch: core:  3, cta: 1 initialized @(12363,0)
GPGPU-Sim uArch: Shader 7 finished CTA #2 (12368,0), 2 CTAs running
GPGPU-Sim uArch: core:  7, cta: 2 initialized @(12369,0)
GPGPU-Sim uArch: Shader 10 finished CTA #1 (12374,0), 2 CTAs running
GPGPU-Sim uArch: core: 10, cta: 1 initialized @(12375,0)
GPGPU-Sim PTX: 6600000 instructions simulated : ctaid=(122,0,0) tid=(207,0,0)
GPGPU-Sim uArch: Shader 0 finished CTA #2 (12485,0), 2 CTAs running
GPGPU-Sim uArch: core:  0, cta: 2 initialized @(12486,0)
GPGPU-Sim uArch: cycles simulated: 12500  inst.: 6347914 (ipc=507.8) sim_rate=488301 (inst/sec) elapsed = 0:0:00:13 / Wed Jan 30 06:01:39 2019
GPGPU-Sim PTX: 6700000 instructions simulated : ctaid=(124,0,0) tid=(239,0,0)
GPGPU-Sim uArch: Shader 8 finished CTA #2 (12683,0), 2 CTAs running
GPGPU-Sim uArch: core:  8, cta: 2 initialized @(12684,0)
GPGPU-Sim uArch: Shader 6 finished CTA #2 (12731,0), 2 CTAs running
GPGPU-Sim uArch: core:  6, cta: 2 initialized @(12732,0)
GPGPU-Sim PTX: 6800000 instructions simulated : ctaid=(92,0,0) tid=(335,0,0)
GPGPU-Sim uArch: Shader 12 finished CTA #2 (12881,0), 2 CTAs running
GPGPU-Sim uArch: core: 12, cta: 2 initialized @(12882,0)
GPGPU-Sim uArch: Shader 9 finished CTA #2 (12911,0), 2 CTAs running
GPGPU-Sim uArch: core:  9, cta: 2 initialized @(12912,0)
GPGPU-Sim uArch: Shader 11 finished CTA #2 (12915,0), 2 CTAs running
GPGPU-Sim uArch: core: 11, cta: 2 initialized @(12916,0)
GPGPU-Sim uArch: Shader 5 finished CTA #2 (12923,0), 2 CTAs running
GPGPU-Sim uArch: core:  5, cta: 2 initialized @(12924,0)
GPGPU-Sim uArch: Shader 14 finished CTA #2 (12939,0), 2 CTAs running
GPGPU-Sim uArch: core: 14, cta: 2 initialized @(12940,0)
GPGPU-Sim uArch: Shader 13 finished CTA #2 (12957,0), 2 CTAs running
GPGPU-Sim uArch: core: 13, cta: 2 initialized @(12958,0)
GPGPU-Sim uArch: Shader 3 finished CTA #2 (12962,0), 2 CTAs running
GPGPU-Sim uArch: core:  3, cta: 2 initialized @(12963,0)
GPGPU-Sim PTX: 6900000 instructions simulated : ctaid=(130,0,0) tid=(239,0,0)
GPGPU-Sim uArch: Shader 10 finished CTA #2 (12967,0), 2 CTAs running
GPGPU-Sim uArch: core: 10, cta: 2 initialized @(12968,0)
GPGPU-Sim uArch: cycles simulated: 13000  inst.: 6589578 (ipc=506.9) sim_rate=470684 (inst/sec) elapsed = 0:0:00:14 / Wed Jan 30 06:01:40 2019
GPGPU-Sim PTX: 7000000 instructions simulated : ctaid=(133,0,0) tid=(143,0,0)
GPGPU-Sim PTX: 7100000 instructions simulated : ctaid=(103,0,0) tid=(271,0,0)
GPGPU-Sim PTX: 7200000 instructions simulated : ctaid=(91,0,0) tid=(479,0,0)
GPGPU-Sim PTX: 7300000 instructions simulated : ctaid=(94,0,0) tid=(375,0,0)
GPGPU-Sim PTX: 7400000 instructions simulated : ctaid=(111,0,0) tid=(199,0,0)
GPGPU-Sim PTX: 7500000 instructions simulated : ctaid=(119,0,0) tid=(307,0,0)
GPGPU-Sim PTX: 7600000 instructions simulated : ctaid=(93,0,0) tid=(5,0,0)
GPGPU-Sim uArch: cycles simulated: 14000  inst.: 7322822 (ipc=523.1) sim_rate=488188 (inst/sec) elapsed = 0:0:00:15 / Wed Jan 30 06:01:41 2019
GPGPU-Sim PTX: 7700000 instructions simulated : ctaid=(119,0,0) tid=(91,0,0)
GPGPU-Sim PTX: 7800000 instructions simulated : ctaid=(119,0,0) tid=(317,0,0)
GPGPU-Sim PTX: 7900000 instructions simulated : ctaid=(105,0,0) tid=(113,0,0)
GPGPU-Sim PTX: 8000000 instructions simulated : ctaid=(117,0,0) tid=(200,0,0)
GPGPU-Sim uArch: cycles simulated: 14500  inst.: 7696977 (ipc=530.8) sim_rate=481061 (inst/sec) elapsed = 0:0:00:16 / Wed Jan 30 06:01:42 2019
GPGPU-Sim PTX: 8100000 instructions simulated : ctaid=(126,0,0) tid=(139,0,0)
GPGPU-Sim uArch: Shader 2 finished CTA #0 (14552,0), 2 CTAs running
GPGPU-Sim uArch: core:  2, cta: 0 initialized @(14553,0)
GPGPU-Sim uArch: Shader 1 finished CTA #0 (14612,0), 2 CTAs running
GPGPU-Sim uArch: core:  1, cta: 0 initialized @(14613,0)
GPGPU-Sim PTX: 8200000 instructions simulated : ctaid=(117,0,0) tid=(65,0,0)
GPGPU-Sim uArch: Shader 4 finished CTA #0 (14671,0), 2 CTAs running
GPGPU-Sim uArch: core:  4, cta: 0 initialized @(14672,0)
GPGPU-Sim PTX: 8300000 instructions simulated : ctaid=(116,0,0) tid=(1,0,0)
GPGPU-Sim uArch: Shader 7 finished CTA #0 (14838,0), 2 CTAs running
GPGPU-Sim uArch: core:  7, cta: 0 initialized @(14839,0)
GPGPU-Sim PTX: 8400000 instructions simulated : ctaid=(97,0,0) tid=(91,0,0)
GPGPU-Sim uArch: cycles simulated: 15000  inst.: 8065119 (ipc=537.7) sim_rate=474418 (inst/sec) elapsed = 0:0:00:17 / Wed Jan 30 06:01:43 2019
GPGPU-Sim PTX: 8500000 instructions simulated : ctaid=(117,0,0) tid=(10,0,0)
GPGPU-Sim uArch: Shader 2 finished CTA #1 (15108,0), 2 CTAs running
GPGPU-Sim uArch: core:  2, cta: 1 initialized @(15109,0)
GPGPU-Sim uArch: Shader 0 finished CTA #0 (15175,0), 2 CTAs running
GPGPU-Sim uArch: core:  0, cta: 0 initialized @(15176,0)
GPGPU-Sim PTX: 8600000 instructions simulated : ctaid=(109,0,0) tid=(369,0,0)
GPGPU-Sim PTX: 8700000 instructions simulated : ctaid=(118,0,0) tid=(95,0,0)
GPGPU-Sim uArch: Shader 8 finished CTA #0 (15437,0), 2 CTAs running
GPGPU-Sim uArch: core:  8, cta: 0 initialized @(15438,0)
GPGPU-Sim PTX: 8800000 instructions simulated : ctaid=(97,0,0) tid=(24,0,0)
GPGPU-Sim uArch: Shader 1 finished CTA #1 (15589,0), 2 CTAs running
GPGPU-Sim uArch: core:  1, cta: 1 initialized @(15590,0)
GPGPU-Sim PTX: 8900000 instructions simulated : ctaid=(133,0,0) tid=(41,0,0)
GPGPU-Sim uArch: Shader 6 finished CTA #0 (15618,0), 2 CTAs running
GPGPU-Sim uArch: core:  6, cta: 0 initialized @(15619,0)
GPGPU-Sim PTX: 9000000 instructions simulated : ctaid=(126,0,0) tid=(77,0,0)
GPGPU-Sim PTX: 9100000 instructions simulated : ctaid=(130,0,0) tid=(503,0,0)
GPGPU-Sim uArch: Shader 13 finished CTA #0 (15924,0), 2 CTAs running
GPGPU-Sim uArch: core: 13, cta: 0 initialized @(15925,0)
GPGPU-Sim uArch: Shader 6 finished CTA #1 (15936,0), 2 CTAs running
GPGPU-Sim uArch: core:  6, cta: 1 initialized @(15937,0)
GPGPU-Sim uArch: Shader 12 finished CTA #0 (15939,0), 2 CTAs running
GPGPU-Sim uArch: core: 12, cta: 0 initialized @(15940,0)
GPGPU-Sim uArch: Shader 4 finished CTA #1 (15990,0), 2 CTAs running
GPGPU-Sim uArch: core:  4, cta: 1 initialized @(15991,0)
GPGPU-Sim uArch: Shader 10 finished CTA #0 (15999,0), 2 CTAs running
GPGPU-Sim uArch: core: 10, cta: 0 initialized @(16000,0)
GPGPU-Sim uArch: cycles simulated: 16000  inst.: 8765717 (ipc=547.9) sim_rate=486984 (inst/sec) elapsed = 0:0:00:18 / Wed Jan 30 06:01:44 2019
GPGPU-Sim PTX: 9200000 instructions simulated : ctaid=(107,0,0) tid=(279,0,0)
GPGPU-Sim uArch: Shader 3 finished CTA #0 (16072,0), 2 CTAs running
GPGPU-Sim uArch: core:  3, cta: 0 initialized @(16073,0)
GPGPU-Sim uArch: Shader 12 finished CTA #1 (16096,0), 2 CTAs running
GPGPU-Sim uArch: core: 12, cta: 1 initialized @(16097,0)
GPGPU-Sim PTX: 9300000 instructions simulated : ctaid=(116,0,0) tid=(258,0,0)
GPGPU-Sim uArch: Shader 0 finished CTA #1 (16184,0), 2 CTAs running
GPGPU-Sim uArch: core:  0, cta: 1 initialized @(16185,0)
GPGPU-Sim uArch: Shader 11 finished CTA #0 (16200,0), 2 CTAs running
GPGPU-Sim uArch: core: 11, cta: 0 initialized @(16201,0)
GPGPU-Sim PTX: 9400000 instructions simulated : ctaid=(120,0,0) tid=(165,0,0)
GPGPU-Sim uArch: Shader 2 finished CTA #2 (16290,0), 2 CTAs running
GPGPU-Sim uArch: core:  2, cta: 2 initialized @(16291,0)
GPGPU-Sim PTX: 9500000 instructions simulated : ctaid=(128,0,0) tid=(150,0,0)
GPGPU-Sim uArch: Shader 8 finished CTA #1 (16398,0), 2 CTAs running
GPGPU-Sim uArch: core:  8, cta: 1 initialized @(16399,0)
GPGPU-Sim uArch: Shader 5 finished CTA #0 (16439,0), 2 CTAs running
GPGPU-Sim uArch: core:  5, cta: 0 initialized @(16440,0)
GPGPU-Sim uArch: Shader 7 finished CTA #1 (16463,0), 2 CTAs running
GPGPU-Sim uArch: core:  7, cta: 1 initialized @(16464,0)
GPGPU-Sim uArch: Shader 1 finished CTA #2 (16480,0), 2 CTAs running
GPGPU-Sim uArch: core:  1, cta: 2 initialized @(16481,0)
GPGPU-Sim uArch: cycles simulated: 16500  inst.: 9133810 (ipc=553.6) sim_rate=480726 (inst/sec) elapsed = 0:0:00:19 / Wed Jan 30 06:01:45 2019
GPGPU-Sim PTX: 9600000 instructions simulated : ctaid=(146,0,0) tid=(23,0,0)
GPGPU-Sim uArch: Shader 9 finished CTA #0 (16625,0), 2 CTAs running
GPGPU-Sim uArch: core:  9, cta: 0 initialized @(16626,0)
GPGPU-Sim PTX: 9700000 instructions simulated : ctaid=(137,0,0) tid=(122,0,0)
GPGPU-Sim uArch: Shader 14 finished CTA #0 (16791,0), 2 CTAs running
GPGPU-Sim uArch: core: 14, cta: 0 initialized @(16792,0)
GPGPU-Sim uArch: Shader 4 finished CTA #2 (16806,0), 2 CTAs running
GPGPU-Sim uArch: core:  4, cta: 2 initialized @(16807,0)
GPGPU-Sim uArch: Shader 11 finished CTA #1 (16834,0), 2 CTAs running
GPGPU-Sim uArch: core: 11, cta: 1 initialized @(16835,0)
GPGPU-Sim PTX: 9800000 instructions simulated : ctaid=(161,0,0) tid=(279,0,0)
GPGPU-Sim uArch: Shader 5 finished CTA #1 (16987,0), 2 CTAs running
GPGPU-Sim uArch: core:  5, cta: 1 initialized @(16988,0)
GPGPU-Sim uArch: Shader 3 finished CTA #1 (17007,0), 2 CTAs running
GPGPU-Sim uArch: core:  3, cta: 1 initialized @(17008,0)
GPGPU-Sim uArch: Shader 7 finished CTA #2 (17017,0), 2 CTAs running
GPGPU-Sim uArch: core:  7, cta: 2 initialized @(17018,0)
GPGPU-Sim uArch: Shader 0 finished CTA #2 (17059,0), 2 CTAs running
GPGPU-Sim uArch: Shader 10 finished CTA #1 (17059,0), 2 CTAs running
GPGPU-Sim uArch: core: 10, cta: 1 initialized @(17060,0)
GPGPU-Sim uArch: core:  0, cta: 2 initialized @(17060,0)
GPGPU-Sim PTX: 9900000 instructions simulated : ctaid=(150,0,0) tid=(295,0,0)
GPGPU-Sim uArch: Shader 13 finished CTA #1 (17076,0), 2 CTAs running
GPGPU-Sim uArch: core: 13, cta: 1 initialized @(17077,0)
GPGPU-Sim uArch: Shader 6 finished CTA #2 (17097,0), 2 CTAs running
GPGPU-Sim uArch: core:  6, cta: 2 initialized @(17098,0)
GPGPU-Sim uArch: Shader 9 finished CTA #1 (17104,0), 2 CTAs running
GPGPU-Sim uArch: core:  9, cta: 1 initialized @(17105,0)
GPGPU-Sim uArch: Shader 12 finished CTA #2 (17169,0), 2 CTAs running
GPGPU-Sim uArch: core: 12, cta: 2 initialized @(17170,0)
GPGPU-Sim uArch: Shader 14 finished CTA #1 (17171,0), 2 CTAs running
GPGPU-Sim uArch: core: 14, cta: 1 initialized @(17172,0)
GPGPU-Sim uArch: Shader 8 finished CTA #2 (17173,0), 2 CTAs running
GPGPU-Sim uArch: core:  8, cta: 2 initialized @(17174,0)
GPGPU-Sim uArch: Shader 11 finished CTA #2 (17176,0), 2 CTAs running
GPGPU-Sim uArch: core: 11, cta: 2 initialized @(17177,0)
GPGPU-Sim PTX: 10000000 instructions simulated : ctaid=(139,0,0) tid=(79,0,0)
GPGPU-Sim uArch: Shader 5 finished CTA #2 (17277,0), 2 CTAs running
GPGPU-Sim uArch: core:  5, cta: 2 initialized @(17278,0)
GPGPU-Sim PTX: 10100000 instructions simulated : ctaid=(173,0,0) tid=(231,0,0)
GPGPU-Sim uArch: Shader 3 finished CTA #2 (17444,0), 2 CTAs running
GPGPU-Sim uArch: core:  3, cta: 2 initialized @(17445,0)
GPGPU-Sim uArch: Shader 10 finished CTA #2 (17474,0), 2 CTAs running
GPGPU-Sim uArch: core: 10, cta: 2 initialized @(17475,0)
GPGPU-Sim uArch: Shader 13 finished CTA #2 (17476,0), 2 CTAs running
GPGPU-Sim uArch: core: 13, cta: 2 initialized @(17477,0)
GPGPU-Sim uArch: Shader 9 finished CTA #2 (17484,0), 2 CTAs running
GPGPU-Sim uArch: core:  9, cta: 2 initialized @(17485,0)
GPGPU-Sim uArch: Shader 14 finished CTA #2 (17486,0), 2 CTAs running
GPGPU-Sim uArch: core: 14, cta: 2 initialized @(17487,0)
GPGPU-Sim uArch: cycles simulated: 17500  inst.: 9715481 (ipc=555.2) sim_rate=485774 (inst/sec) elapsed = 0:0:00:20 / Wed Jan 30 06:01:46 2019
GPGPU-Sim PTX: 10200000 instructions simulated : ctaid=(178,0,0) tid=(117,0,0)
GPGPU-Sim PTX: 10300000 instructions simulated : ctaid=(160,0,0) tid=(328,0,0)
GPGPU-Sim PTX: 10400000 instructions simulated : ctaid=(167,0,0) tid=(44,0,0)
GPGPU-Sim PTX: 10500000 instructions simulated : ctaid=(170,0,0) tid=(227,0,0)
GPGPU-Sim uArch: cycles simulated: 18000  inst.: 10083261 (ipc=560.2) sim_rate=480155 (inst/sec) elapsed = 0:0:00:21 / Wed Jan 30 06:01:47 2019
GPGPU-Sim PTX: 10600000 instructions simulated : ctaid=(149,0,0) tid=(446,0,0)
GPGPU-Sim PTX: 10700000 instructions simulated : ctaid=(151,0,0) tid=(159,0,0)
GPGPU-Sim uArch: Shader 4 finished CTA #0 (18157,0), 2 CTAs running
GPGPU-Sim uArch: core:  4, cta: 0 initialized @(18158,0)
GPGPU-Sim uArch: Shader 7 finished CTA #0 (18203,0), 2 CTAs running
GPGPU-Sim uArch: core:  7, cta: 0 initialized @(18204,0)
GPGPU-Sim PTX: 10800000 instructions simulated : ctaid=(179,0,0) tid=(349,0,0)
GPGPU-Sim uArch: Shader 2 finished CTA #0 (18269,0), 2 CTAs running
GPGPU-Sim uArch: core:  2, cta: 0 initialized @(18270,0)
GPGPU-Sim uArch: Shader 1 finished CTA #0 (18320,0), 2 CTAs running
GPGPU-Sim uArch: core:  1, cta: 0 initialized @(18321,0)
GPGPU-Sim PTX: 10900000 instructions simulated : ctaid=(144,0,0) tid=(457,0,0)
GPGPU-Sim uArch: Shader 0 finished CTA #0 (18433,0), 2 CTAs running
GPGPU-Sim uArch: core:  0, cta: 0 initialized @(18434,0)
GPGPU-Sim uArch: cycles simulated: 18500  inst.: 10471234 (ipc=566.0) sim_rate=475965 (inst/sec) elapsed = 0:0:00:22 / Wed Jan 30 06:01:48 2019
GPGPU-Sim PTX: 11000000 instructions simulated : ctaid=(161,0,0) tid=(42,0,0)
GPGPU-Sim PTX: 11100000 instructions simulated : ctaid=(139,0,0) tid=(454,0,0)
GPGPU-Sim PTX: 11200000 instructions simulated : ctaid=(170,0,0) tid=(25,0,0)
GPGPU-Sim uArch: Shader 8 finished CTA #0 (18843,0), 2 CTAs running
GPGPU-Sim uArch: core:  8, cta: 0 initialized @(18844,0)
GPGPU-Sim PTX: 11300000 instructions simulated : ctaid=(167,0,0) tid=(10,0,0)
GPGPU-Sim uArch: cycles simulated: 19000  inst.: 10848626 (ipc=571.0) sim_rate=471679 (inst/sec) elapsed = 0:0:00:23 / Wed Jan 30 06:01:49 2019
GPGPU-Sim PTX: 11400000 instructions simulated : ctaid=(177,0,0) tid=(371,0,0)
GPGPU-Sim uArch: Shader 2 finished CTA #1 (19028,0), 2 CTAs running
GPGPU-Sim uArch: core:  2, cta: 1 initialized @(19029,0)
GPGPU-Sim PTX: 11500000 instructions simulated : ctaid=(185,0,0) tid=(197,0,0)
GPGPU-Sim PTX: 11600000 instructions simulated : ctaid=(169,0,0) tid=(3,0,0)
GPGPU-Sim uArch: Shader 1 finished CTA #1 (19353,0), 2 CTAs running
GPGPU-Sim uArch: core:  1, cta: 1 initialized @(19354,0)
GPGPU-Sim PTX: 11700000 instructions simulated : ctaid=(168,0,0) tid=(104,0,0)
GPGPU-Sim PTX: 11800000 instructions simulated : ctaid=(157,0,0) tid=(26,0,0)
GPGPU-Sim PTX: 11900000 instructions simulated : ctaid=(177,0,0) tid=(292,0,0)
GPGPU-Sim PTX: 12000000 instructions simulated : ctaid=(183,0,0) tid=(411,0,0)
GPGPU-Sim uArch: Shader 11 finished CTA #0 (19887,0), 2 CTAs running
GPGPU-Sim uArch: core: 11, cta: 0 initialized @(19888,0)
GPGPU-Sim uArch: Shader 6 finished CTA #0 (19922,0), 2 CTAs running
GPGPU-Sim uArch: core:  6, cta: 0 initialized @(19923,0)
GPGPU-Sim PTX: 12100000 instructions simulated : ctaid=(164,0,0) tid=(346,0,0)
GPGPU-Sim uArch: cycles simulated: 20000  inst.: 11570447 (ipc=578.5) sim_rate=482101 (inst/sec) elapsed = 0:0:00:24 / Wed Jan 30 06:01:50 2019
GPGPU-Sim uArch: Shader 12 finished CTA #0 (20057,0), 2 CTAs running
GPGPU-Sim uArch: core: 12, cta: 0 initialized @(20058,0)
GPGPU-Sim uArch: Shader 4 finished CTA #1 (20060,0), 2 CTAs running
GPGPU-Sim uArch: core:  4, cta: 1 initialized @(20061,0)
GPGPU-Sim PTX: 12200000 instructions simulated : ctaid=(188,0,0) tid=(435,0,0)
GPGPU-Sim PTX: 12300000 instructions simulated : ctaid=(165,0,0) tid=(314,0,0)
GPGPU-Sim uArch: Shader 6 finished CTA #1 (20260,0), 2 CTAs running
GPGPU-Sim uArch: core:  6, cta: 1 initialized @(20261,0)
GPGPU-Sim uArch: Shader 10 finished CTA #0 (20289,0), 2 CTAs running
GPGPU-Sim uArch: core: 10, cta: 0 initialized @(20290,0)
GPGPU-Sim uArch: Shader 12 finished CTA #1 (20325,0), 2 CTAs running
GPGPU-Sim uArch: core: 12, cta: 1 initialized @(20326,0)
GPGPU-Sim uArch: Shader 13 finished CTA #0 (20331,0), 2 CTAs running
GPGPU-Sim uArch: core: 13, cta: 0 initialized @(20332,0)
GPGPU-Sim PTX: 12400000 instructions simulated : ctaid=(157,0,0) tid=(317,0,0)
GPGPU-Sim uArch: Shader 3 finished CTA #0 (20453,0), 2 CTAs running
GPGPU-Sim uArch: core:  3, cta: 0 initialized @(20454,0)
GPGPU-Sim uArch: Shader 2 finished CTA #2 (20470,0), 2 CTAs running
GPGPU-Sim uArch: core:  2, cta: 2 initialized @(20471,0)
GPGPU-Sim PTX: 12500000 instructions simulated : ctaid=(192,0,0) tid=(482,0,0)
GPGPU-Sim uArch: cycles simulated: 20500  inst.: 11932184 (ipc=582.1) sim_rate=477287 (inst/sec) elapsed = 0:0:00:25 / Wed Jan 30 06:01:51 2019
GPGPU-Sim uArch: Shader 0 finished CTA #1 (20614,0), 2 CTAs running
GPGPU-Sim uArch: core:  0, cta: 1 initialized @(20615,0)
GPGPU-Sim uArch: Shader 5 finished CTA #0 (20626,0), 2 CTAs running
GPGPU-Sim uArch: core:  5, cta: 0 initialized @(20627,0)
GPGPU-Sim PTX: 12600000 instructions simulated : ctaid=(193,0,0) tid=(186,0,0)
GPGPU-Sim uArch: Shader 1 finished CTA #2 (20674,0), 2 CTAs running
GPGPU-Sim uArch: core:  1, cta: 2 initialized @(20675,0)
GPGPU-Sim uArch: Shader 7 finished CTA #1 (20677,0), 2 CTAs running
GPGPU-Sim uArch: core:  7, cta: 1 initialized @(20678,0)
GPGPU-Sim PTX: 12700000 instructions simulated : ctaid=(181,0,0) tid=(17,0,0)
GPGPU-Sim uArch: Shader 8 finished CTA #1 (20822,0), 2 CTAs running
GPGPU-Sim uArch: core:  8, cta: 1 initialized @(20823,0)
GPGPU-Sim uArch: Shader 5 finished CTA #1 (20880,0), 2 CTAs running
GPGPU-Sim uArch: core:  5, cta: 1 initialized @(20881,0)
GPGPU-Sim uArch: Shader 11 finished CTA #1 (20888,0), 2 CTAs running
GPGPU-Sim PTX: 12800000 instructions simulated : ctaid=(179,0,0) tid=(427,0,0)
GPGPU-Sim uArch: core: 11, cta: 1 initialized @(20889,0)
GPGPU-Sim uArch: cycles simulated: 21000  inst.: 12292690 (ipc=585.4) sim_rate=472795 (inst/sec) elapsed = 0:0:00:26 / Wed Jan 30 06:01:52 2019
GPGPU-Sim uArch: Shader 4 finished CTA #2 (21010,0), 2 CTAs running
GPGPU-Sim uArch: core:  4, cta: 2 initialized @(21011,0)
GPGPU-Sim PTX: 12900000 instructions simulated : ctaid=(192,0,0) tid=(231,0,0)
GPGPU-Sim uArch: Shader 3 finished CTA #1 (21050,0), 2 CTAs running
GPGPU-Sim uArch: core:  3, cta: 1 initialized @(21051,0)
GPGPU-Sim PTX: 13000000 instructions simulated : ctaid=(195,0,0) tid=(489,0,0)
GPGPU-Sim uArch: Shader 7 finished CTA #2 (21292,0), 2 CTAs running
GPGPU-Sim uArch: core:  7, cta: 2 initialized @(21293,0)
GPGPU-Sim uArch: Shader 9 finished CTA #0 (21296,0), 2 CTAs running
GPGPU-Sim uArch: core:  9, cta: 0 initialized @(21297,0)
GPGPU-Sim uArch: Shader 10 finished CTA #1 (21299,0), 2 CTAs running
GPGPU-Sim uArch: core: 10, cta: 1 initialized @(21300,0)
GPGPU-Sim PTX: 13100000 instructions simulated : ctaid=(180,0,0) tid=(83,0,0)
GPGPU-Sim uArch: Shader 14 finished CTA #0 (21333,0), 2 CTAs running
GPGPU-Sim uArch: core: 14, cta: 0 initialized @(21334,0)
GPGPU-Sim uArch: Shader 6 finished CTA #2 (21429,0), 2 CTAs running
GPGPU-Sim uArch: core:  6, cta: 2 initialized @(21430,0)
GPGPU-Sim PTX: 13200000 instructions simulated : ctaid=(190,0,0) tid=(49,0,0)
GPGPU-Sim uArch: Shader 13 finished CTA #1 (21483,0), 2 CTAs running
GPGPU-Sim uArch: core: 13, cta: 1 initialized @(21484,0)
GPGPU-Sim uArch: cycles simulated: 21500  inst.: 12608082 (ipc=586.4) sim_rate=466966 (inst/sec) elapsed = 0:0:00:27 / Wed Jan 30 06:01:53 2019
GPGPU-Sim uArch: Shader 12 finished CTA #2 (21563,0), 2 CTAs running
GPGPU-Sim uArch: core: 12, cta: 2 initialized @(21564,0)
GPGPU-Sim PTX: 13300000 instructions simulated : ctaid=(203,0,0) tid=(221,0,0)
GPGPU-Sim uArch: Shader 8 finished CTA #2 (21659,0), 2 CTAs running
GPGPU-Sim uArch: core:  8, cta: 2 initialized @(21660,0)
GPGPU-Sim uArch: Shader 11 finished CTA #2 (21671,0), 2 CTAs running
GPGPU-Sim uArch: core: 11, cta: 2 initialized @(21672,0)
GPGPU-Sim uArch: Shader 9 finished CTA #1 (21705,0), 2 CTAs running
GPGPU-Sim uArch: core:  9, cta: 1 initialized @(21706,0)
GPGPU-Sim uArch: Shader 0 finished CTA #2 (21708,0), 2 CTAs running
GPGPU-Sim uArch: core:  0, cta: 2 initialized @(21709,0)
GPGPU-Sim uArch: Shader 14 finished CTA #1 (21713,0), 2 CTAs running
GPGPU-Sim uArch: core: 14, cta: 1 initialized @(21714,0)
GPGPU-Sim uArch: Shader 3 finished CTA #2 (21756,0), 2 CTAs running
GPGPU-Sim uArch: core:  3, cta: 2 initialized @(21757,0)
GPGPU-Sim PTX: 13400000 instructions simulated : ctaid=(194,0,0) tid=(399,0,0)
GPGPU-Sim uArch: Shader 13 finished CTA #2 (21820,0), 2 CTAs running
GPGPU-Sim uArch: core: 13, cta: 2 initialized @(21821,0)
GPGPU-Sim uArch: Shader 10 finished CTA #2 (21831,0), 2 CTAs running
GPGPU-Sim uArch: core: 10, cta: 2 initialized @(21832,0)
GPGPU-Sim uArch: Shader 5 finished CTA #2 (21905,0), 2 CTAs running
GPGPU-Sim uArch: core:  5, cta: 2 initialized @(21906,0)
GPGPU-Sim PTX: 13500000 instructions simulated : ctaid=(187,0,0) tid=(7,0,0)
GPGPU-Sim uArch: Shader 9 finished CTA #2 (22001,0), 2 CTAs running
GPGPU-Sim uArch: core:  9, cta: 2 initialized @(22002,0)
GPGPU-Sim uArch: Shader 14 finished CTA #2 (22003,0), 2 CTAs running
GPGPU-Sim uArch: core: 14, cta: 2 initialized @(22004,0)
GPGPU-Sim PTX: 13600000 instructions simulated : ctaid=(223,0,0) tid=(313,0,0)
GPGPU-Sim uArch: Shader 2 finished CTA #0 (22212,0), 2 CTAs running
GPGPU-Sim uArch: core:  2, cta: 0 initialized @(22213,0)
GPGPU-Sim PTX: 13700000 instructions simulated : ctaid=(218,0,0) tid=(111,0,0)
GPGPU-Sim uArch: Shader 7 finished CTA #0 (22284,0), 2 CTAs running
GPGPU-Sim uArch: core:  7, cta: 0 initialized @(22285,0)
GPGPU-Sim PTX: 13800000 instructions simulated : ctaid=(226,0,0) tid=(89,0,0)
GPGPU-Sim uArch: Shader 1 finished CTA #0 (22399,0), 2 CTAs running
GPGPU-Sim uArch: core:  1, cta: 0 initialized @(22400,0)
GPGPU-Sim uArch: Shader 0 finished CTA #0 (22407,0), 2 CTAs running
GPGPU-Sim uArch: core:  0, cta: 0 initialized @(22408,0)
GPGPU-Sim uArch: Shader 4 finished CTA #0 (22445,0), 2 CTAs running
GPGPU-Sim uArch: core:  4, cta: 0 initialized @(22446,0)
GPGPU-Sim PTX: 13900000 instructions simulated : ctaid=(197,0,0) tid=(445,0,0)
GPGPU-Sim uArch: cycles simulated: 22500  inst.: 13267212 (ipc=589.7) sim_rate=473829 (inst/sec) elapsed = 0:0:00:28 / Wed Jan 30 06:01:54 2019
GPGPU-Sim uArch: Shader 8 finished CTA #0 (22573,0), 2 CTAs running
GPGPU-Sim uArch: core:  8, cta: 0 initialized @(22574,0)
GPGPU-Sim PTX: 14000000 instructions simulated : ctaid=(209,0,0) tid=(76,0,0)
GPGPU-Sim PTX: 14100000 instructions simulated : ctaid=(194,0,0) tid=(206,0,0)
GPGPU-Sim PTX: 14200000 instructions simulated : ctaid=(198,0,0) tid=(476,0,0)
GPGPU-Sim PTX: 14300000 instructions simulated : ctaid=(206,0,0) tid=(167,0,0)
GPGPU-Sim uArch: cycles simulated: 23000  inst.: 13641039 (ipc=593.1) sim_rate=470380 (inst/sec) elapsed = 0:0:00:29 / Wed Jan 30 06:01:55 2019
GPGPU-Sim uArch: Shader 2 finished CTA #1 (23003,0), 2 CTAs running
GPGPU-Sim uArch: core:  2, cta: 1 initialized @(23004,0)
GPGPU-Sim PTX: 14400000 instructions simulated : ctaid=(212,0,0) tid=(114,0,0)
GPGPU-Sim uArch: Shader 1 finished CTA #1 (23141,0), 2 CTAs running
GPGPU-Sim uArch: core:  1, cta: 1 initialized @(23142,0)
GPGPU-Sim uArch: Shader 11 finished CTA #0 (23230,0), 2 CTAs running
GPGPU-Sim uArch: core: 11, cta: 0 initialized @(23231,0)
GPGPU-Sim PTX: 14500000 instructions simulated : ctaid=(203,0,0) tid=(193,0,0)
GPGPU-Sim PTX: 14600000 instructions simulated : ctaid=(215,0,0) tid=(87,0,0)
GPGPU-Sim PTX: 14700000 instructions simulated : ctaid=(218,0,0) tid=(488,0,0)
GPGPU-Sim uArch: cycles simulated: 23500  inst.: 14020657 (ipc=596.6) sim_rate=467355 (inst/sec) elapsed = 0:0:00:30 / Wed Jan 30 06:01:56 2019
GPGPU-Sim uArch: Shader 12 finished CTA #0 (23542,0), 2 CTAs running
GPGPU-Sim uArch: core: 12, cta: 0 initialized @(23543,0)
GPGPU-Sim PTX: 14800000 instructions simulated : ctaid=(193,0,0) tid=(507,0,0)
GPGPU-Sim PTX: 14900000 instructions simulated : ctaid=(231,0,0) tid=(29,0,0)
GPGPU-Sim uArch: Shader 4 finished CTA #1 (23800,0), 2 CTAs running
GPGPU-Sim uArch: core:  4, cta: 1 initialized @(23801,0)
GPGPU-Sim uArch: Shader 6 finished CTA #0 (23873,0), 2 CTAs running
GPGPU-Sim uArch: core:  6, cta: 0 initialized @(23874,0)
GPGPU-Sim PTX: 15000000 instructions simulated : ctaid=(234,0,0) tid=(82,0,0)
GPGPU-Sim uArch: cycles simulated: 24000  inst.: 14385328 (ipc=599.4) sim_rate=464042 (inst/sec) elapsed = 0:0:00:31 / Wed Jan 30 06:01:57 2019
GPGPU-Sim PTX: 15100000 instructions simulated : ctaid=(231,0,0) tid=(246,0,0)
GPGPU-Sim PTX: 15200000 instructions simulated : ctaid=(205,0,0) tid=(238,0,0)
GPGPU-Sim PTX: 15300000 instructions simulated : ctaid=(233,0,0) tid=(500,0,0)
GPGPU-Sim PTX: 15400000 instructions simulated : ctaid=(195,0,0) tid=(477,0,0)
GPGPU-Sim uArch: Shader 6 finished CTA #1 (24439,0), 2 CTAs running
GPGPU-Sim uArch: core:  6, cta: 1 initialized @(24440,0)
GPGPU-Sim PTX: 15500000 instructions simulated : ctaid=(233,0,0) tid=(126,0,0)
GPGPU-Sim uArch: Shader 12 finished CTA #1 (24585,0), 2 CTAs running
GPGPU-Sim uArch: core: 12, cta: 1 initialized @(24586,0)
GPGPU-Sim uArch: Shader 2 finished CTA #2 (24665,0), 2 CTAs running
GPGPU-Sim uArch: core:  2, cta: 2 initialized @(24666,0)
GPGPU-Sim PTX: 15600000 instructions simulated : ctaid=(227,0,0) tid=(485,0,0)
GPGPU-Sim uArch: Shader 10 finished CTA #0 (24781,0), 2 CTAs running
GPGPU-Sim uArch: core: 10, cta: 0 initialized @(24782,0)
GPGPU-Sim uArch: Shader 1 finished CTA #2 (24786,0), 2 CTAs running
GPGPU-Sim uArch: core:  1, cta: 2 initialized @(24787,0)
GPGPU-Sim uArch: Shader 3 finished CTA #0 (24799,0), 2 CTAs running
GPGPU-Sim uArch: core:  3, cta: 0 initialized @(24800,0)
GPGPU-Sim uArch: Shader 13 finished CTA #0 (24814,0), 2 CTAs running
GPGPU-Sim uArch: core: 13, cta: 0 initialized @(24815,0)
GPGPU-Sim uArch: Shader 5 finished CTA #0 (24819,0), 2 CTAs running
GPGPU-Sim uArch: core:  5, cta: 0 initialized @(24820,0)
GPGPU-Sim PTX: 15700000 instructions simulated : ctaid=(214,0,0) tid=(379,0,0)
GPGPU-Sim uArch: Shader 5 finished CTA #1 (24883,0), 2 CTAs running
GPGPU-Sim uArch: core:  5, cta: 1 initialized @(24884,0)
GPGPU-Sim PTX: 15800000 instructions simulated : ctaid=(234,0,0) tid=(454,0,0)
GPGPU-Sim uArch: Shader 7 finished CTA #1 (24975,0), 2 CTAs running
GPGPU-Sim uArch: core:  7, cta: 1 initialized @(24976,0)
GPGPU-Sim uArch: cycles simulated: 25000  inst.: 15104629 (ipc=604.2) sim_rate=472019 (inst/sec) elapsed = 0:0:00:32 / Wed Jan 30 06:01:58 2019
GPGPU-Sim uArch: Shader 0 finished CTA #1 (25043,0), 2 CTAs running
GPGPU-Sim uArch: core:  0, cta: 1 initialized @(25044,0)
GPGPU-Sim PTX: 15900000 instructions simulated : ctaid=(232,0,0) tid=(317,0,0)
GPGPU-Sim uArch: Shader 11 finished CTA #1 (25198,0), 2 CTAs running
GPGPU-Sim uArch: core: 11, cta: 1 initialized @(25199,0)
GPGPU-Sim uArch: Shader 4 finished CTA #2 (25218,0), 2 CTAs running
GPGPU-Sim uArch: core:  4, cta: 2 initialized @(25219,0)
GPGPU-Sim PTX: 16000000 instructions simulated : ctaid=(218,0,0) tid=(254,0,0)
GPGPU-Sim uArch: Shader 8 finished CTA #1 (25320,0), 2 CTAs running
GPGPU-Sim uArch: core:  8, cta: 1 initialized @(25321,0)
GPGPU-Sim uArch: Shader 7 finished CTA #2 (25324,0), 2 CTAs running
GPGPU-Sim uArch: core:  7, cta: 2 initialized @(25325,0)
GPGPU-Sim PTX: 16100000 instructions simulated : ctaid=(251,0,0) tid=(479,0,0)
GPGPU-Sim PTX: 16200000 instructions simulated : ctaid=(228,0,0) tid=(80,0,0)
GPGPU-Sim uArch: cycles simulated: 25500  inst.: 15469459 (ipc=606.6) sim_rate=468771 (inst/sec) elapsed = 0:0:00:33 / Wed Jan 30 06:01:59 2019
GPGPU-Sim uArch: Shader 12 finished CTA #2 (25565,0), 2 CTAs running
GPGPU-Sim uArch: core: 12, cta: 2 initialized @(25566,0)
GPGPU-Sim PTX: 16300000 instructions simulated : ctaid=(227,0,0) tid=(150,0,0)
GPGPU-Sim uArch: Shader 10 finished CTA #1 (25658,0), 2 CTAs running
GPGPU-Sim uArch: core: 10, cta: 1 initialized @(25659,0)
GPGPU-Sim uArch: Shader 13 finished CTA #1 (25730,0), 2 CTAs running
GPGPU-Sim uArch: core: 13, cta: 1 initialized @(25731,0)
GPGPU-Sim uArch: Shader 3 finished CTA #1 (25778,0), 2 CTAs running
GPGPU-Sim uArch: core:  3, cta: 1 initialized @(25779,0)
GPGPU-Sim uArch: Shader 9 finished CTA #0 (25779,0), 2 CTAs running
GPGPU-Sim uArch: core:  9, cta: 0 initialized @(25780,0)
GPGPU-Sim PTX: 16400000 instructions simulated : ctaid=(246,0,0) tid=(216,0,0)
GPGPU-Sim uArch: Shader 6 finished CTA #2 (25786,0), 2 CTAs running
GPGPU-Sim uArch: core:  6, cta: 2 initialized @(25787,0)
GPGPU-Sim uArch: Shader 14 finished CTA #0 (25818,0), 2 CTAs running
GPGPU-Sim uArch: core: 14, cta: 0 initialized @(25819,0)
GPGPU-Sim uArch: Shader 8 finished CTA #2 (25918,0), 2 CTAs running
GPGPU-Sim uArch: core:  8, cta: 2 initialized @(25919,0)
GPGPU-Sim PTX: 16500000 instructions simulated : ctaid=(259,0,0) tid=(114,0,0)
GPGPU-Sim uArch: cycles simulated: 26000  inst.: 15790143 (ipc=607.3) sim_rate=464415 (inst/sec) elapsed = 0:0:00:34 / Wed Jan 30 06:02:00 2019
GPGPU-Sim PTX: 16600000 instructions simulated : ctaid=(259,0,0) tid=(231,0,0)
GPGPU-Sim uArch: Shader 0 finished CTA #2 (26156,0), 2 CTAs running
GPGPU-Sim uArch: core:  0, cta: 2 initialized @(26157,0)
GPGPU-Sim uArch: Shader 10 finished CTA #2 (26178,0), 2 CTAs running
GPGPU-Sim uArch: core: 10, cta: 2 initialized @(26179,0)
GPGPU-Sim uArch: Shader 13 finished CTA #2 (26184,0), 2 CTAs running
GPGPU-Sim uArch: core: 13, cta: 2 initialized @(26185,0)
GPGPU-Sim uArch: Shader 9 finished CTA #1 (26216,0), 2 CTAs running
GPGPU-Sim uArch: core:  9, cta: 1 initialized @(26217,0)
GPGPU-Sim uArch: Shader 3 finished CTA #2 (26226,0), 2 CTAs running
GPGPU-Sim uArch: core:  3, cta: 2 initialized @(26227,0)
GPGPU-Sim PTX: 16700000 instructions simulated : ctaid=(262,0,0) tid=(129,0,0)
GPGPU-Sim uArch: Shader 14 finished CTA #1 (26372,0), 2 CTAs running
GPGPU-Sim uArch: core: 14, cta: 1 initialized @(26373,0)
GPGPU-Sim uArch: Shader 11 finished CTA #2 (26386,0), 2 CTAs running
GPGPU-Sim uArch: core: 11, cta: 2 initialized @(26387,0)
GPGPU-Sim PTX: 16800000 instructions simulated : ctaid=(239,0,0) tid=(81,0,0)
GPGPU-Sim uArch: cycles simulated: 26500  inst.: 16046250 (ipc=605.5) sim_rate=458464 (inst/sec) elapsed = 0:0:00:35 / Wed Jan 30 06:02:01 2019
GPGPU-Sim uArch: Shader 5 finished CTA #2 (26506,0), 2 CTAs running
GPGPU-Sim uArch: core:  5, cta: 2 initialized @(26507,0)
GPGPU-Sim uArch: Shader 1 finished CTA #0 (26592,0), 2 CTAs running
GPGPU-Sim uArch: core:  1, cta: 0 initialized @(26593,0)
GPGPU-Sim uArch: Shader 2 finished CTA #0 (26601,0), 2 CTAs running
GPGPU-Sim uArch: core:  2, cta: 0 initialized @(26602,0)
GPGPU-Sim PTX: 16900000 instructions simulated : ctaid=(246,0,0) tid=(7,0,0)
GPGPU-Sim uArch: Shader 9 finished CTA #2 (26735,0), 2 CTAs running
GPGPU-Sim uArch: core:  9, cta: 2 initialized @(26736,0)
GPGPU-Sim uArch: Shader 7 finished CTA #0 (26751,0), 2 CTAs running
GPGPU-Sim uArch: core:  7, cta: 0 initialized @(26752,0)
GPGPU-Sim uArch: Shader 0 finished CTA #0 (26763,0), 2 CTAs running
GPGPU-Sim uArch: core:  0, cta: 0 initialized @(26764,0)
GPGPU-Sim uArch: Shader 14 finished CTA #2 (26775,0), 2 CTAs running
GPGPU-Sim uArch: core: 14, cta: 2 initialized @(26776,0)
GPGPU-Sim uArch: Shader 4 finished CTA #0 (26782,0), 2 CTAs running
GPGPU-Sim uArch: core:  4, cta: 0 initialized @(26783,0)
GPGPU-Sim PTX: 17000000 instructions simulated : ctaid=(273,0,0) tid=(445,0,0)
GPGPU-Sim uArch: Shader 8 finished CTA #0 (26797,0), 2 CTAs running
GPGPU-Sim uArch: core:  8, cta: 0 initialized @(26798,0)
GPGPU-Sim uArch: Shader 2 finished CTA #1 (26885,0), 2 CTAs running
GPGPU-Sim uArch: core:  2, cta: 1 initialized @(26886,0)
GPGPU-Sim PTX: 17100000 instructions simulated : ctaid=(252,0,0) tid=(350,0,0)
GPGPU-Sim uArch: Shader 1 finished CTA #1 (26928,0), 2 CTAs running
GPGPU-Sim uArch: core:  1, cta: 1 initialized @(26929,0)
GPGPU-Sim uArch: Shader 11 finished CTA #0 (26930,0), 2 CTAs running
GPGPU-Sim uArch: core: 11, cta: 0 initialized @(26931,0)
GPGPU-Sim PTX: 17200000 instructions simulated : ctaid=(258,0,0) tid=(141,0,0)
GPGPU-Sim PTX: 17300000 instructions simulated : ctaid=(265,0,0) tid=(279,0,0)
GPGPU-Sim PTX: 17400000 instructions simulated : ctaid=(253,0,0) tid=(359,0,0)
GPGPU-Sim uArch: Shader 12 finished CTA #0 (27324,0), 2 CTAs running
GPGPU-Sim uArch: core: 12, cta: 0 initialized @(27325,0)
GPGPU-Sim uArch: Shader 6 finished CTA #0 (27402,0), 2 CTAs running
GPGPU-Sim uArch: core:  6, cta: 0 initialized @(27403,0)
GPGPU-Sim PTX: 17500000 instructions simulated : ctaid=(262,0,0) tid=(343,0,0)
GPGPU-Sim uArch: cycles simulated: 27500  inst.: 16754285 (ipc=609.2) sim_rate=465396 (inst/sec) elapsed = 0:0:00:36 / Wed Jan 30 06:02:02 2019
GPGPU-Sim PTX: 17600000 instructions simulated : ctaid=(254,0,0) tid=(355,0,0)
GPGPU-Sim uArch: Shader 4 finished CTA #1 (27579,0), 2 CTAs running
GPGPU-Sim uArch: core:  4, cta: 1 initialized @(27580,0)
GPGPU-Sim PTX: 17700000 instructions simulated : ctaid=(278,0,0) tid=(335,0,0)
GPGPU-Sim PTX: 17800000 instructions simulated : ctaid=(263,0,0) tid=(165,0,0)
GPGPU-Sim PTX: 17900000 instructions simulated : ctaid=(281,0,0) tid=(291,0,0)
GPGPU-Sim uArch: cycles simulated: 28000  inst.: 17130267 (ipc=611.8) sim_rate=462980 (inst/sec) elapsed = 0:0:00:37 / Wed Jan 30 06:02:03 2019
GPGPU-Sim PTX: 18000000 instructions simulated : ctaid=(261,0,0) tid=(263,0,0)
GPGPU-Sim uArch: Shader 2 finished CTA #2 (28178,0), 2 CTAs running
GPGPU-Sim uArch: core:  2, cta: 2 initialized @(28179,0)
GPGPU-Sim PTX: 18100000 instructions simulated : ctaid=(249,0,0) tid=(116,0,0)
GPGPU-Sim PTX: 18200000 instructions simulated : ctaid=(265,0,0) tid=(238,0,0)
GPGPU-Sim uArch: Shader 12 finished CTA #1 (28411,0), 2 CTAs running
GPGPU-Sim uArch: core: 12, cta: 1 initialized @(28412,0)
GPGPU-Sim PTX: 18300000 instructions simulated : ctaid=(271,0,0) tid=(230,0,0)
GPGPU-Sim uArch: cycles simulated: 28500  inst.: 17505962 (ipc=614.2) sim_rate=460683 (inst/sec) elapsed = 0:0:00:38 / Wed Jan 30 06:02:04 2019
GPGPU-Sim PTX: 18400000 instructions simulated : ctaid=(256,0,0) tid=(404,0,0)
GPGPU-Sim uArch: Shader 6 finished CTA #1 (28585,0), 2 CTAs running
GPGPU-Sim uArch: core:  6, cta: 1 initialized @(28586,0)
GPGPU-Sim uArch: Shader 10 finished CTA #0 (28601,0), 2 CTAs running
GPGPU-Sim uArch: core: 10, cta: 0 initialized @(28602,0)
GPGPU-Sim uArch: Shader 7 finished CTA #1 (28658,0), 2 CTAs running
GPGPU-Sim uArch: core:  7, cta: 1 initialized @(28659,0)
GPGPU-Sim PTX: 18500000 instructions simulated : ctaid=(267,0,0) tid=(85,0,0)
GPGPU-Sim uArch: Shader 13 finished CTA #0 (28784,0), 2 CTAs running
GPGPU-Sim uArch: core: 13, cta: 0 initialized @(28785,0)
GPGPU-Sim uArch: Shader 3 finished CTA #0 (28827,0), 2 CTAs running
GPGPU-Sim uArch: core:  3, cta: 0 initialized @(28828,0)
GPGPU-Sim PTX: 18600000 instructions simulated : ctaid=(256,0,0) tid=(431,0,0)
GPGPU-Sim uArch: Shader 1 finished CTA #2 (28953,0), 2 CTAs running
GPGPU-Sim uArch: core:  1, cta: 2 initialized @(28954,0)
GPGPU-Sim PTX: 18700000 instructions simulated : ctaid=(248,0,0) tid=(321,0,0)
GPGPU-Sim PTX: 18800000 instructions simulated : ctaid=(273,0,0) tid=(93,0,0)
GPGPU-Sim PTX: 18900000 instructions simulated : ctaid=(277,0,0) tid=(54,0,0)
GPGPU-Sim uArch: Shader 5 finished CTA #0 (29281,0), 2 CTAs running
GPGPU-Sim uArch: core:  5, cta: 0 initialized @(29282,0)
GPGPU-Sim uArch: Shader 0 finished CTA #1 (29299,0), 2 CTAs running
GPGPU-Sim uArch: core:  0, cta: 1 initialized @(29300,0)
GPGPU-Sim PTX: 19000000 instructions simulated : ctaid=(265,0,0) tid=(60,0,0)
GPGPU-Sim uArch: Shader 4 finished CTA #2 (29393,0), 2 CTAs running
GPGPU-Sim uArch: core:  4, cta: 2 initialized @(29394,0)
GPGPU-Sim uArch: Shader 5 finished CTA #1 (29415,0), 2 CTAs running
GPGPU-Sim uArch: core:  5, cta: 1 initialized @(29416,0)
GPGPU-Sim PTX: 19100000 instructions simulated : ctaid=(264,0,0) tid=(291,0,0)
GPGPU-Sim uArch: cycles simulated: 29500  inst.: 18235747 (ipc=618.2) sim_rate=467583 (inst/sec) elapsed = 0:0:00:39 / Wed Jan 30 06:02:05 2019
GPGPU-Sim uArch: Shader 7 finished CTA #2 (29603,0), 2 CTAs running
GPGPU-Sim uArch: core:  7, cta: 2 initialized @(29604,0)
GPGPU-Sim uArch: Shader 8 finished CTA #1 (29625,0), 2 CTAs running
GPGPU-Sim uArch: core:  8, cta: 1 initialized @(29626,0)
GPGPU-Sim PTX: 19200000 instructions simulated : ctaid=(260,0,0) tid=(126,0,0)
GPGPU-Sim uArch: Shader 12 finished CTA #2 (29741,0), 2 CTAs running
GPGPU-Sim uArch: core: 12, cta: 2 initialized @(29742,0)
GPGPU-Sim uArch: Shader 10 finished CTA #1 (29754,0), 2 CTAs running
GPGPU-Sim uArch: core: 10, cta: 1 initialized @(29755,0)
GPGPU-Sim PTX: 19300000 instructions simulated : ctaid=(281,0,0) tid=(344,0,0)
GPGPU-Sim uArch: Shader 13 finished CTA #1 (29771,0), 2 CTAs running
GPGPU-Sim uArch: core: 13, cta: 1 initialized @(29772,0)
GPGPU-Sim uArch: Shader 11 finished CTA #1 (29782,0), 2 CTAs running
GPGPU-Sim uArch: core: 11, cta: 1 initialized @(29783,0)
GPGPU-Sim uArch: Shader 3 finished CTA #1 (29856,0), 2 CTAs running
GPGPU-Sim uArch: core:  3, cta: 1 initialized @(29857,0)
GPGPU-Sim uArch: Shader 6 finished CTA #2 (29857,0), 2 CTAs running
GPGPU-Sim uArch: core:  6, cta: 2 initialized @(29858,0)
GPGPU-Sim PTX: 19400000 instructions simulated : ctaid=(269,0,0) tid=(107,0,0)
GPGPU-Sim uArch: cycles simulated: 30000  inst.: 18595981 (ipc=619.9) sim_rate=464899 (inst/sec) elapsed = 0:0:00:40 / Wed Jan 30 06:02:06 2019
GPGPU-Sim uArch: Shader 9 finished CTA #0 (30012,0), 2 CTAs running
GPGPU-Sim uArch: core:  9, cta: 0 initialized @(30013,0)
GPGPU-Sim PTX: 19500000 instructions simulated : ctaid=(302,0,0) tid=(92,0,0)
GPGPU-Sim uArch: Shader 0 finished CTA #2 (30157,0), 2 CTAs running
GPGPU-Sim uArch: core:  0, cta: 2 initialized @(30158,0)
GPGPU-Sim PTX: 19600000 instructions simulated : ctaid=(268,0,0) tid=(480,0,0)
GPGPU-Sim uArch: Shader 14 finished CTA #0 (30239,0), 2 CTAs running
GPGPU-Sim uArch: core: 14, cta: 0 initialized @(30240,0)
GPGPU-Sim PTX: 19700000 instructions simulated : ctaid=(286,0,0) tid=(210,0,0)
GPGPU-Sim PTX: 19800000 instructions simulated : ctaid=(292,0,0) tid=(316,0,0)
GPGPU-Sim uArch: cycles simulated: 30500  inst.: 18969265 (ipc=621.9) sim_rate=462665 (inst/sec) elapsed = 0:0:00:41 / Wed Jan 30 06:02:07 2019
GPGPU-Sim PTX: 19900000 instructions simulated : ctaid=(282,0,0) tid=(372,0,0)
GPGPU-Sim uArch: Shader 9 finished CTA #1 (30543,0), 2 CTAs running
GPGPU-Sim uArch: core:  9, cta: 1 initialized @(30544,0)
GPGPU-Sim uArch: Shader 1 finished CTA #0 (30632,0), 2 CTAs running
GPGPU-Sim uArch: core:  1, cta: 0 initialized @(30633,0)
GPGPU-Sim PTX: 20000000 instructions simulated : ctaid=(285,0,0) tid=(257,0,0)
GPGPU-Sim uArch: Shader 2 finished CTA #0 (30694,0), 2 CTAs running
GPGPU-Sim uArch: core:  2, cta: 0 initialized @(30695,0)
GPGPU-Sim uArch: Shader 3 finished CTA #2 (30722,0), 2 CTAs running
GPGPU-Sim uArch: core:  3, cta: 2 initialized @(30723,0)
GPGPU-Sim uArch: Shader 13 finished CTA #2 (30768,0), 2 CTAs running
GPGPU-Sim uArch: core: 13, cta: 2 initialized @(30769,0)
GPGPU-Sim uArch: Shader 10 finished CTA #2 (30817,0), 2 CTAs running
GPGPU-Sim uArch: core: 10, cta: 2 initialized @(30818,0)
GPGPU-Sim uArch: Shader 8 finished CTA #2 (30828,0), 2 CTAs running
GPGPU-Sim uArch: core:  8, cta: 2 initialized @(30829,0)
GPGPU-Sim PTX: 20100000 instructions simulated : ctaid=(287,0,0) tid=(41,0,0)
GPGPU-Sim uArch: Shader 14 finished CTA #1 (30869,0), 2 CTAs running
GPGPU-Sim uArch: core: 14, cta: 1 initialized @(30870,0)
GPGPU-Sim uArch: Shader 11 finished CTA #2 (30899,0), 2 CTAs running
GPGPU-Sim uArch: core: 11, cta: 2 initialized @(30900,0)
GPGPU-Sim PTX: 20200000 instructions simulated : ctaid=(311,0,0) tid=(319,0,0)
GPGPU-Sim uArch: cycles simulated: 31000  inst.: 19293002 (ipc=622.4) sim_rate=459357 (inst/sec) elapsed = 0:0:00:42 / Wed Jan 30 06:02:08 2019
GPGPU-Sim PTX: 20300000 instructions simulated : ctaid=(286,0,0) tid=(263,0,0)
GPGPU-Sim uArch: Shader 5 finished CTA #2 (31147,0), 2 CTAs running
GPGPU-Sim uArch: core:  5, cta: 2 initialized @(31148,0)
GPGPU-Sim uArch: Shader 7 finished CTA #0 (31149,0), 2 CTAs running
GPGPU-Sim uArch: core:  7, cta: 0 initialized @(31150,0)
GPGPU-Sim uArch: Shader 4 finished CTA #0 (31201,0), 2 CTAs running
GPGPU-Sim uArch: core:  4, cta: 0 initialized @(31202,0)
GPGPU-Sim uArch: Shader 2 finished CTA #1 (31225,0), 2 CTAs running
GPGPU-Sim uArch: core:  2, cta: 1 initialized @(31226,0)
[...]
gpgpu_stall_shd_mem[g_mem_st][wb_icnt_rc] = 0
gpgpu_stall_shd_mem[g_mem_st][wb_rsrv_fail] = 0
gpgpu_stall_shd_mem[l_mem_ld][mshr_rc] = 0
gpgpu_stall_shd_mem[l_mem_ld][icnt_rc] = 0
gpgpu_stall_shd_mem[l_mem_ld][wb_icnt_rc] = 0
gpgpu_stall_shd_mem[l_mem_ld][wb_rsrv_fail] = 0
gpgpu_stall_shd_mem[l_mem_st][mshr_rc] = 0
gpgpu_stall_shd_mem[l_mem_st][icnt_rc] = 0
gpgpu_stall_shd_mem[l_mem_ld][wb_icnt_rc] = 0
gpgpu_stall_shd_mem[l_mem_ld][wb_rsrv_fail] = 0
gpu_reg_bank_conflict_stalls = 0
Warp Occupancy Distribution:
Stall:156397	W0_Idle:98492	W0_Scoreboard:375547	W1:7816	W2:7816	W3:0	W4:7816	W5:0	W6:0	W7:0	W8:7816	W9:0	W10:0	W11:0	W12:0	W13:0	W14:0	W15:0	W16:7816	W17:0	W18:0	W19:0	W20:0	W21:0	W22:0	W23:0	W24:0	W25:0	W26:0	W27:0	W28:0	W29:0	W30:0	W31:0	W32:2102406
traffic_breakdown_coretomem[CONST_ACC_R] = 120 {8:15,}
traffic_breakdown_coretomem[GLOBAL_ACC_R] = 250000 {8:31250,}
traffic_breakdown_coretomem[GLOBAL_ACC_W] = 625280 {40:15632,}
traffic_breakdown_coretomem[INST_ACC_R] = 600 {8:75,}
traffic_breakdown_memtocore[CONST_ACC_R] = 1080 {72:15,}
traffic_breakdown_memtocore[GLOBAL_ACC_R] = 4250000 {136:31250,}
traffic_breakdown_memtocore[GLOBAL_ACC_W] = 125056 {8:15632,}
traffic_breakdown_memtocore[INST_ACC_R] = 10200 {136:75,}
maxmrqlatency = 146 
maxdqlatency = 0 
maxmflatency = 932 
averagemflatency = 293 
max_icnt2mem_latency = 798 
max_icnt2sh_latency = 93246 
mrq_lat_table:26215 	2169 	1021 	762 	829 	293 	119 	25 	0 	0 	0 	0 	0 	0 	0 	0 	0 	0 	0 	0 	0 	0 	0 	0 	0 	0 	0 	0 	0 	0 	0 	0 	
dq_lat_table:0 	0 	0 	0 	0 	0 	0 	0 	0 	0 	0 	0 	0 	0 	0 	0 	0 	0 	0 	0 	0 	0 	0 	0 	0 	0 	0 	0 	0 	0 	0 	0 	
mf_lat_table:0 	0 	0 	0 	0 	0 	0 	9912 	34417 	2568 	0 	0 	0 	0 	0 	0 	0 	0 	0 	0 	0 	0 	0 	0 	0 	0 	0 	0 	0 	0 	0 	0 	
icnt2mem_lat_table:0 	0 	0 	28099 	5125 	3949 	3765 	3357 	1996 	681 	0 	0 	0 	0 	0 	0 	0 	0 	0 	0 	0 	0 	0 	0 	
icnt2sh_lat_table:0 	0 	0 	11900 	12753 	5619 	973 	20 	0 	0 	0 	0 	720 	1091 	2845 	5840 	5136 	0 	0 	0 	0 	0 	0 	0 	
mf_lat_pw_table:0 	0 	0 	0 	0 	0 	0 	86 	88 	6 	0 	0 	0 	0 	0 	0 	0 	0 	0 	0 	0 	0 	0 	0 	0 	0 	0 	0 	0 	0 	0 	0 	
maximum concurrent accesses to same row:
dram[0]:        32        32        32        32        32        32        32        32        32        32        32        32        32        32        32        32 
dram[1]:        32        32        32        32        32        32        32        32        32        32        32        32        32        32        32        32 
dram[2]:        32        32        32        32        32        32        32        32        32        32        32        32        32        32        32        32 
dram[3]:        32        32        32        32        32        32        32        32        32        32        32        32        32        32        32        32 
dram[4]:        32        32        32        32        32        32        32        32        32        32        32        32        32        32        32        32 
dram[5]:        32        32        32        32        32        32        32        32        32        32        32        32        32        32        32        32 
maximum service time to same row:
dram[0]:      9760      9572      9812      9654     10519     10542     10757     10565     11259     11049     11583     11700     13735     13882      9244      9264 
dram[1]:      9754      9648      9832      9669     10571     10547     10754     10581     11264     11059     11592     11701     13739     13975      9245      9556 
dram[2]:      9756      9843      9846      9638     10569     10992     10753     10615     11259     11053     11588     11821     13844     13979      9244      9202 
dram[3]:      9743      9816      9885      9552     10567     10942     10750     10613     11318      9542     11603     11859     13842     14019      9237      9171 
dram[4]:      9599      9828      9659      9700     10569     10950     10564     10691     11038      9878     11612     11863     13831     14013      9246      9183 
dram[5]:      9618      9866      9653      9676     10552     10950     10563     10735     11049     11213     11655     11880     13833     14019      9257      9187 
average row accesses per activate:
dram[0]: 24.846153 32.000000 32.000000 32.000000 30.000000 30.000000 32.000000 32.000000 26.076923 22.266666 32.000000 32.000000 32.000000 32.000000 32.000000 32.000000 
dram[1]: 29.272728 32.000000 32.000000 32.000000 30.000000 30.000000 32.000000 32.000000 19.647058 20.875000 32.000000 32.000000 32.000000 32.000000 32.000000 32.000000 
dram[2]: 29.181818 32.000000 32.000000 32.000000 30.000000 30.181818 32.000000 32.000000 22.266666 27.750000 32.000000 32.000000 32.000000 32.000000 32.000000 32.000000 
dram[3]: 32.000000 32.000000 32.000000 32.000000 30.000000 30.181818 32.000000 32.000000 25.692308 26.230770 32.000000 32.000000 32.000000 32.000000 32.000000 32.000000 
dram[4]: 32.000000 32.000000 32.000000 32.000000 30.000000 30.181818 32.000000 32.000000 19.647058 20.117647 32.000000 32.000000 32.000000 32.000000 32.000000 32.000000 
dram[5]: 32.000000 32.000000 32.000000 32.000000 30.000000 30.181818 32.000000 32.000000 22.266666 22.799999 32.000000 32.000000 32.000000 32.000000 32.000000 32.000000 
average row locality = 31433/1047 = 30.021967
number of total memory accesses made:
dram[0]:         0         0         0         0         0         0         0         0         0         0         0         0         0         0         0         0 
dram[1]:         0         0         0         0         0         0         0         0         0         0         0         0         0         0         0         0 
dram[2]:         0         0         0         0         0         0         0         0         0         0         0         0         0         0         0         0 
dram[3]:         0         0         0         0         0         0         0         0         0         0         0         0         0         0         0         0 
dram[4]:         0         0         0         0         0         0         0         0         0         0         0         0         0         0         0         0 
dram[5]:         0         0         0         0         0         0         0         0         0         0         0         0         0         0         0         0 
total accesses: 0
min_bank_accesses = 0!
min_chip_accesses = 0!
number of total read accesses:
dram[0]:       323       320       320       320       330       330       352       352       325       324       320       320       320       320       320       320 
dram[1]:       322       320       320       320       330       330       352       352       324       324       320       320       320       320       320       320 
dram[2]:       321       320       320       320       330       332       352       352       324       324       320       320       320       320       320       320 
dram[3]:       320       320       320       320       330       332       352       352       324       324       320       320       320       320       320       320 
dram[4]:       320       320       320       320       330       332       352       352       324       324       320       320       320       320       320       320 
dram[5]:       320       320       320       320       330       332       352       352       324       324       320       320       320       320       320       320 
total reads: 31287
bank skew: 352/320 = 1.10
chip skew: 5216/5214 = 1.00
number of total write accesses:
dram[0]:         0         0         0         0         0         0         0         0        14        10         0         0         0         0         0         0 
dram[1]:         0         0         0         0         0         0         0         0        10        10         0         0         0         0         0         0 
dram[2]:         0         0         0         0         0         0         0         0        10         9         0         0         0         0         0         0 
dram[3]:         0         0         0         0         0         0         0         0        10        17         0         0         0         0         0         0 
dram[4]:         0         0         0         0         0         0         0         0        10        18         0         0         0         0         0         0 
dram[5]:         0         0         0         0         0         0         0         0        10        18         0         0         0         0         0         0 
total reads: 146
min_bank_accesses = 0!
chip skew: 28/19 = 1.47
average mf latency per bank:
dram[0]:        313       303       284       290       297       300       333       335      1323       952       291       301       307       307       324       318
dram[1]:        300       303       284       284       298       296       336       325      1182       901       290       293       302       302       321       327
dram[2]:        294       298       281       284       297       299       336       329      1000      1162       286       305       300       299       314       308
dram[3]:        297       306       280       294       297       301       338       318       891      2670       286       289       303       307       315       329
dram[4]:        307       300       286       285       299       306       329       326       945      2160       293       289       302       304       320       317
dram[5]:        306       297       287       279       300       299       341       332       934      1830       298       297       300       300       319       315
maximum mf latency per bank:
dram[0]:        770       533       576       552       827       749       790       783       760       677       651       643       893       850       786       751
dram[1]:        701       565       583       637       803       758       857       803       741       623       599       514       853       925       855       819
dram[2]:        598       716       700       544       812       877       871       663       750       824       670       663       797       885       756       784
dram[3]:        577       669       625       536       786       901       830       666       760       928       574       531       784       932       758       919
dram[4]:        661       713       572       484       822       782       828       836       827       868       558       514       884       844       827       829
dram[5]:        578       638       555       509       817       678       867       854       723       704       622       602       800       889       788       804
Memory Partition 0: 
Cache L2_bank_000:
MSHR contents

Cache L2_bank_001:
MSHR contents

In Dram Latency Queue (total = 0): 
DRAM[0]: 16 bks, busW=4 BL=8 CL=12, tRRD=2 tCCD=6, tRCD=12 tRAS=28 tRP=12 tRC=40
n_cmd=123085 n_nop=112291 n_act=175 n_pre=159 n_req=5240 n_rd=10432 n_write=28 bw_util=0.17
n_activity=55059 dram_eff=0.38
bk0: 646a 121114i bk1: 640a 121008i bk2: 640a 121089i bk3: 640a 120923i bk4: 660a 121167i bk5: 660a 120972i bk6: 704a 120807i bk7: 704a 120391i bk8: 650a 120887i bk9: 648a 120444i bk10: 640a 120735i bk11: 640a 120414i bk12: 640a 120955i bk13: 640a 120761i bk14: 640a 121144i bk15: 640a 120915i 
dram_util_bins: 0 0 0 0 0 0 0 0 0 0
dram_eff_bins: 0 0 0 0 0 0 0 0 0 0
mrqq: max=16 avg=0.112069
Memory Partition 1: 
Cache L2_bank_002:
MSHR contents

Cache L2_bank_003:
MSHR contents

In Dram Latency Queue (total = 0): 
DRAM[1]: 16 bks, busW=4 BL=8 CL=12, tRRD=2 tCCD=6, tRCD=12 tRAS=28 tRP=12 tRC=40
n_cmd=123085 n_nop=112293 n_act=178 n_pre=162 n_req=5234 n_rd=10428 n_write=24 bw_util=0.1698
n_activity=55503 dram_eff=0.3766
bk0: 644a 121184i bk1: 640a 120935i bk2: 640a 120950i bk3: 640a 120831i bk4: 660a 121135i bk5: 660a 120920i bk6: 704a 120858i bk7: 704a 120444i bk8: 648a 120887i bk9: 648a 120574i bk10: 640a 120713i bk11: 640a 120485i bk12: 640a 121063i bk13: 640a 120878i bk14: 640a 121150i bk15: 640a 120798i 
dram_util_bins: 0 0 0 0 0 0 0 0 0 0
dram_eff_bins: 0 0 0 0 0 0 0 0 0 0
mrqq: max=16 avg=0.102214
Memory Partition 2: 
Cache L2_bank_004:
MSHR contents

Cache L2_bank_005:
MSHR contents

In Dram Latency Queue (total = 0): 
DRAM[2]: 16 bks, busW=4 BL=8 CL=12, tRRD=2 tCCD=6, tRCD=12 tRAS=28 tRP=12 tRC=40
n_cmd=123085 n_nop=112305 n_act=172 n_pre=156 n_req=5234 n_rd=10430 n_write=22 bw_util=0.1698
n_activity=55213 dram_eff=0.3786
bk0: 642a 121227i bk1: 640a 120896i bk2: 640a 121200i bk3: 640a 121019i bk4: 660a 121182i bk5: 664a 121024i bk6: 704a 120859i bk7: 704a 120492i bk8: 648a 120887i bk9: 648a 120440i bk10: 640a 120759i bk11: 640a 120497i bk12: 640a 120929i bk13: 640a 120744i bk14: 640a 121183i bk15: 640a 120964i 
dram_util_bins: 0 0 0 0 0 0 0 0 0 0
dram_eff_bins: 0 0 0 0 0 0 0 0 0 0
mrqq: max=16 avg=0.0994191
Memory Partition 3: 
Cache L2_bank_006:
MSHR contents

Cache L2_bank_007:
MSHR contents

In Dram Latency Queue (total = 0): 
DRAM[3]: 16 bks, busW=4 BL=8 CL=12, tRRD=2 tCCD=6, tRCD=12 tRAS=28 tRP=12 tRC=40
n_cmd=123085 n_nop=112302 n_act=170 n_pre=154 n_req=5241 n_rd=10428 n_write=31 bw_util=0.1699
n_activity=55325 dram_eff=0.3781
bk0: 640a 121287i bk1: 640a 120960i bk2: 640a 121061i bk3: 640a 120808i bk4: 660a 121154i bk5: 664a 120908i bk6: 704a 120866i bk7: 704a 120351i bk8: 648a 120947i bk9: 648a 120417i bk10: 640a 120923i bk11: 640a 120565i bk12: 640a 120872i bk13: 640a 120795i bk14: 640a 121210i bk15: 640a 120849i 
dram_util_bins: 0 0 0 0 0 0 0 0 0 0
dram_eff_bins: 0 0 0 0 0 0 0 0 0 0
mrqq: max=16 avg=0.101865
Memory Partition 4: 
Cache L2_bank_008:
MSHR contents

Cache L2_bank_009:
MSHR contents

In Dram Latency Queue (total = 0): 
DRAM[4]: 16 bks, busW=4 BL=8 CL=12, tRRD=2 tCCD=6, tRCD=12 tRAS=28 tRP=12 tRC=40
n_cmd=123085 n_nop=112285 n_act=178 n_pre=162 n_req=5242 n_rd=10428 n_write=32 bw_util=0.17
n_activity=55353 dram_eff=0.3779
bk0: 640a 121207i bk1: 640a 120852i bk2: 640a 120985i bk3: 640a 120980i bk4: 660a 121179i bk5: 664a 121045i bk6: 704a 120846i bk7: 704a 120475i bk8: 648a 120843i bk9: 648a 120596i bk10: 640a 120990i bk11: 640a 120449i bk12: 640a 120863i bk13: 640a 120871i bk14: 640a 121098i bk15: 640a 120750i 
dram_util_bins: 0 0 0 0 0 0 0 0 0 0
dram_eff_bins: 0 0 0 0 0 0 0 0 0 0
mrqq: max=16 avg=0.11843
Memory Partition 5: 
Cache L2_bank_010:
MSHR contents

Cache L2_bank_011:
MSHR contents

In Dram Latency Queue (total = 0): 
DRAM[5]: 16 bks, busW=4 BL=8 CL=12, tRRD=2 tCCD=6, tRCD=12 tRAS=28 tRP=12 tRC=40
n_cmd=123085 n_nop=112293 n_act=174 n_pre=158 n_req=5242 n_rd=10428 n_write=32 bw_util=0.17
n_activity=55302 dram_eff=0.3783
bk0: 640a 121220i bk1: 640a 120992i bk2: 640a 121076i bk3: 640a 120963i bk4: 660a 121204i bk5: 664a 120993i bk6: 704a 120881i bk7: 704a 120472i bk8: 648a 120801i bk9: 648a 120472i bk10: 640a 120694i bk11: 640a 120358i bk12: 640a 120895i bk13: 640a 120857i bk14: 640a 121121i bk15: 640a 120782i 
dram_util_bins: 0 0 0 0 0 0 0 0 0 0
dram_eff_bins: 0 0 0 0 0 0 0 0 0 0
mrqq: max=16 avg=0.109177

========= L2 cache stats =========
L2_cache_bank[0]: Access = 3945, Miss = 2610, Miss_rate = 0.662, Pending_hits = 18, Reservation_fails = 667
L2_cache_bank[1]: Access = 3628, Miss = 2606, Miss_rate = 0.718, Pending_hits = 6, Reservation_fails = 316
L2_cache_bank[2]: Access = 3658, Miss = 2608, Miss_rate = 0.713, Pending_hits = 12, Reservation_fails = 392
L2_cache_bank[3]: Access = 3628, Miss = 2606, Miss_rate = 0.718, Pending_hits = 6, Reservation_fails = 297
L2_cache_bank[4]: Access = 3643, Miss = 2607, Miss_rate = 0.716, Pending_hits = 9, Reservation_fails = 285
L2_cache_bank[5]: Access = 3630, Miss = 2608, Miss_rate = 0.718, Pending_hits = 6, Reservation_fails = 299
L2_cache_bank[6]: Access = 3628, Miss = 2606, Miss_rate = 0.718, Pending_hits = 6, Reservation_fails = 298
L2_cache_bank[7]: Access = 4652, Miss = 2608, Miss_rate = 0.561, Pending_hits = 11, Reservation_fails = 406
L2_cache_bank[8]: Access = 3628, Miss = 2606, Miss_rate = 0.718, Pending_hits = 6, Reservation_fails = 277
L2_cache_bank[9]: Access = 4652, Miss = 2608, Miss_rate = 0.561, Pending_hits = 12, Reservation_fails = 573
L2_cache_bank[10]: Access = 3628, Miss = 2606, Miss_rate = 0.718, Pending_hits = 6, Reservation_fails = 294
L2_cache_bank[11]: Access = 4652, Miss = 2608, Miss_rate = 0.561, Pending_hits = 12, Reservation_fails = 525
L2_total_cache_accesses = 46972
L2_total_cache_misses = 31287
L2_total_cache_miss_rate = 0.6661
L2_total_cache_pending_hits = 110
L2_total_cache_reservation_fails = 4629
L2_total_cache_breakdown:
	L2_cache_stats_breakdown[GLOBAL_ACC_R][MISS] = 31250
	L2_cache_stats_breakdown[GLOBAL_ACC_R][RESERVATION_FAIL] = 629
	L2_cache_stats_breakdown[CONST_ACC_R][HIT] = 11
	L2_cache_stats_breakdown[CONST_ACC_R][HIT_RESERVED] = 3
	L2_cache_stats_breakdown[CONST_ACC_R][MISS] = 1
	L2_cache_stats_breakdown[CONST_ACC_R][RESERVATION_FAIL] = 108
	L2_cache_stats_breakdown[GLOBAL_ACC_W][HIT] = 15509
	L2_cache_stats_breakdown[GLOBAL_ACC_W][HIT_RESERVED] = 92
	L2_cache_stats_breakdown[GLOBAL_ACC_W][MISS] = 31
	L2_cache_stats_breakdown[GLOBAL_ACC_W][RESERVATION_FAIL] = 3540
	L2_cache_stats_breakdown[INST_ACC_R][HIT] = 55
	L2_cache_stats_breakdown[INST_ACC_R][HIT_RESERVED] = 15
	L2_cache_stats_breakdown[INST_ACC_R][MISS] = 5
	L2_cache_stats_breakdown[INST_ACC_R][RESERVATION_FAIL] = 352
L2_cache_data_port_util = 0.014
L2_cache_fill_port_util = 0.112

icnt_total_pkts_mem_to_simt=172302
icnt_total_pkts_simt_to_mem=62604
LD_mem_lat_dist  0 0 0 0 0 0 0 0 0 0 0 0 0 0 0 0 0 0 0 0 0 0 0 0 0 0 0
ST_mem_lat_dist  0 0 0 0 0 0 0 0 0 0 0 0 0 0 0 0 0 0 0 0 0 0 0 0 0 0 0
----------------------------Interconnect-DETAILS--------------------------------
Class 0:
Packet latency average = 30.0173
	minimum = 6
	maximum = 437
Network latency average = 20.3171
	minimum = 6
	maximum = 285
Slowest packet = 3096
Flit latency average = 17.9646
	minimum = 6
	maximum = 284
Slowest flit = 181275
Fragmentation average = 0.00967598
	minimum = 0
	maximum = 183
Injected packet rate average = 0.0373139
	minimum = 0.0330091 (at node 5)
	maximum = 0.049889 (at node 22)
Accepted packet rate average = 0.0373139
	minimum = 0.0330091 (at node 5)
	maximum = 0.049889 (at node 22)
Injected flit rate average = 0.093303
	minimum = 0.0439907 (at node 5)
	maximum = 0.161592 (at node 22)
Accepted flit rate average= 0.093303
	minimum = 0.049889 (at node 16)
	maximum = 0.126009 (at node 4)
Injected packet length average = 2.50049
Accepted packet length average = 2.50049
Total in-flight flits = 0 (0 measured)
====== Overall Traffic Statistics ======
====== Traffic class 0 ======
Packet latency average = 30.0173 (1 samples)
	minimum = 6 (1 samples)
	maximum = 437 (1 samples)
Network latency average = 20.3171 (1 samples)
	minimum = 6 (1 samples)
	maximum = 285 (1 samples)
Flit latency average = 17.9646 (1 samples)
	minimum = 6 (1 samples)
	maximum = 284 (1 samples)
Fragmentation average = 0.00967598 (1 samples)
	minimum = 0 (1 samples)
	maximum = 183 (1 samples)
Injected packet rate average = 0.0373139 (1 samples)
	minimum = 0.0330091 (1 samples)
	maximum = 0.049889 (1 samples)
Accepted packet rate average = 0.0373139 (1 samples)
	minimum = 0.0330091 (1 samples)
	maximum = 0.049889 (1 samples)
Injected flit rate average = 0.093303 (1 samples)
	minimum = 0.0439907 (1 samples)
	maximum = 0.161592 (1 samples)
Accepted flit rate average = 0.093303 (1 samples)
	minimum = 0.049889 (1 samples)
	maximum = 0.126009 (1 samples)
Injected packet size average = 2.50049 (1 samples)
Accepted packet size average = 2.50049 (1 samples)
Hops average = 1 (1 samples)
----------------------------END-of-Interconnect-DETAILS-------------------------


gpgpu_simulation_time = 0 days, 0 hrs, 2 min, 28 sec (148 sec)
gpgpu_simulation_rate = 435941 (inst/sec)
gpgpu_simulation_rate = 630 (cycle/sec)
147.919128 s
Copying data from device to host...0.000809 s
Verifying results...TEST PASSED

